
CDL SDfile Writer. v.200000

101106  0  0  1  0            999 V2000
    6.3393   -3.7840    0.0000 C   0  0  0  0  0  0  0  0  0  0  0  0
    5.6380   -5.0627    0.0000 C   0  0  0  0  0  0  0  0  0  0  0  0
    6.3393   -5.4753    0.0000 C   0  0  0  0  0  0  0  0  0  0  0  0
    7.0818   -5.0627    0.0000 C   0  0  0  0  0  0  0  0  0  0  0  0
    7.0818   -4.1965    0.0000 N   0  0  0  0  0  0  0  0  0  0  0  0
   -2.0758   -3.7840    0.0000 C   0  0  0  0  0  0  0  0  0  0  0  0
   -2.0758   -2.9590    0.0000 C   0  0  0  0  0  0  0  0  0  0  0  0
   -2.7770   -2.5465    0.0000 C   0  0  0  0  0  0  0  0  0  0  0  0
   -3.5196   -2.9590    0.0000 C   0  0  0  0  0  0  0  0  0  0  0  0
   -3.5196   -3.7840    0.0000 C   0  0  0  0  0  0  0  0  0  0  0  0
   -2.7770   -4.1965    0.0000 C   0  0  0  0  0  0  0  0  0  0  0  0
   -1.3745   -4.1965    0.0000 C   0  0  0  0  0  0  0  0  0  0  0  0
   -0.6321   -3.7840    0.0000 C   0  0  0  0  0  0  0  0  0  0  0  0
   -0.6321   -2.9590    0.0000 C   0  0  0  0  0  0  0  0  0  0  0  0
   -1.3745   -2.5465    0.0000 C   0  0  0  0  0  0  0  0  0  0  0  0
   -0.0546   -2.5465    0.0000 C   0  0  0  0  0  0  0  0  0  0  0  0
    0.6880   -2.9590    0.0000 C   0  0  0  0  0  0  0  0  0  0  0  0
    2.0905   -2.9590    0.0000 N   0  0  0  0  0  0  0  0  0  0  0  0
    1.3892   -2.5465    0.0000 C   0  0  0  0  0  0  0  0  0  0  0  0
    1.3892   -1.7215    0.0000 O   0  0  0  0  0  0  0  0  0  0  0  0
    2.7918   -2.5465    0.0000 C   0  0  0  0  0  0  0  0  0  0  0  0
    3.5342   -2.9590    0.0000 C   0  0  0  0  0  0  0  0  0  0  0  0
    4.2355   -2.5465    0.0000 N   0  0  0  0  0  0  0  0  0  0  0  0
    4.9368   -2.9590    0.0000 C   0  0  0  0  0  0  0  0  0  0  0  0
    5.6793   -2.5465    0.0000 C   0  0  0  0  0  0  0  0  0  0  0  0
    6.3805   -2.9590    0.0000 N   0  0  0  0  0  0  0  0  0  0  0  0
    7.0405   -2.5465    0.0000 C   0  0  0  0  0  0  0  0  0  0  0  0
    7.7830   -2.9590    0.0000 C   0  0  0  0  0  0  0  0  0  0  0  0
    8.4843   -2.5465    0.0000 N   0  0  0  0  0  0  0  0  0  0  0  0
    9.1855   -2.9590    0.0000 C   0  0  0  0  0  0  0  0  0  0  0  0
    9.9281   -2.5465    0.0000 C   0  0  0  0  0  0  0  0  0  0  0  0
    2.7918   -1.7215    0.0000 C   0  0  0  0  0  0  0  0  0  0  0  0
    3.5342   -3.7840    0.0000 O   0  0  0  0  0  0  0  0  0  0  0  0
    4.9368   -3.7840    0.0000 C   0  0  0  0  0  0  0  0  0  0  0  0
    7.0405   -1.7215    0.0000 C   0  0  0  0  0  0  0  0  0  0  0  0
    5.6793   -1.7215    0.0000 O   0  0  0  0  0  0  0  0  0  0  0  0
    7.7830   -3.7840    0.0000 O   0  0  0  0  0  0  0  0  0  0  0  0
    8.4843   -1.7215    0.0000 C   0  0  0  0  0  0  0  0  0  0  0  0
    9.9281   -1.7215    0.0000 O   0  0  0  0  0  0  0  0  0  0  0  0
   10.6293   -2.9590    0.0000 N   0  0  0  0  0  0  0  0  0  0  0  0
   12.7744   -2.5465    0.0000 N   0  0  0  0  0  0  0  0  0  0  0  0
   11.3306   -2.5465    0.0000 C   0  0  0  0  0  0  0  0  0  0  0  0
   12.0318   -2.9590    0.0000 C   0  0  0  0  0  0  0  0  0  0  0  0
   12.7744   -1.7215    0.0000 N   0  0  0  0  0  0  0  0  0  0  0  0
   12.0318   -1.3090    0.0000 C   0  0  0  0  0  0  0  0  0  0  0  0
   11.3306   -1.7215    0.0000 C   0  0  0  0  0  0  0  0  0  0  0  0
   12.0318   -0.4840    0.0000 O   0  0  0  0  0  0  0  0  0  0  0  0
   12.0318   -3.7840    0.0000 O   0  0  0  0  0  0  0  0  0  0  0  0
   13.5169   -2.9590    0.0000 C   0  0  0  0  0  0  0  0  0  0  0  0
   14.2182   -2.5465    0.0000 C   0  0  0  0  0  0  0  0  0  0  0  0
   14.9195   -2.9590    0.0000 N   0  0  0  0  0  0  0  0  0  0  0  0
   15.6619   -2.5465    0.0000 C   0  0  0  0  0  0  0  0  0  0  0  0
   16.3632   -2.9590    0.0000 C   0  0  0  0  0  0  0  0  0  0  0  0
   13.5582   -3.7840    0.0000 C   0  0  0  0  0  0  0  0  0  0  0  0
   14.2182   -1.7215    0.0000 O   0  0  0  0  0  0  0  0  0  0  0  0
    9.1855   -3.7840    0.0000 C   0  0  0  0  0  0  0  0  0  0  0  0
   16.3632   -3.7840    0.0000 O   0  0  0  0  0  0  0  0  0  0  0  0
    0.6880   -3.7840    0.0000 N   0  0  0  0  0  0  0  0  0  0  0  0
    1.3892   -4.1965    0.0000 C   0  0  0  0  0  0  0  0  0  0  0  0
    2.0905   -3.7840    0.0000 C   0  0  0  0  0  0  0  0  0  0  0  0
    1.3892   -5.0215    0.0000 O   0  0  0  0  0  0  0  0  0  0  0  0
   17.7657   -2.9590    0.0000 C   0  0  0  0  0  0  0  0  0  0  0  0
   18.1782   -1.6802    0.0000 C   0  0  0  0  0  0  0  0  0  0  0  0
   17.3532   -1.6802    0.0000 C   0  0  0  0  0  0  0  0  0  0  0  0
   17.1057   -2.4640    0.0000 N   0  0  0  0  0  0  0  0  0  0  0  0
   18.4257   -2.4640    0.0000 C   0  0  0  0  0  0  0  0  0  0  0  0
   17.7657   -3.7428    0.0000 C   0  0  0  0  0  0  0  0  0  0  0  0
   17.0590   -4.1712    0.0000 O   0  0  0  0  0  0  0  0  0  0  0  0
    3.4930   -1.3090    0.0000 C   0  0  0  0  0  0  0  0  0  0  0  0
    4.2355   -1.6802    0.0000 C   0  0  0  0  0  0  0  0  0  0  0  0
    4.9368   -1.2264    0.0000 C   0  0  0  0  0  0  0  0  0  0  0  0
    4.9369   -0.4427    0.0000 C   0  0  0  0  0  0  0  0  0  0  0  0
    4.1945   -0.0302    0.0000 C   0  0  0  0  0  0  0  0  0  0  0  0
    3.4932   -0.4840    0.0000 C   0  0  0  0  0  0  0  0  0  0  0  0
    5.6382    0.0110    0.0000 Cl  0  0  0  0  0  0  0  0  0  0  0  0
    5.6380   -4.1965    0.0000 C   0  0  0  0  0  0  0  0  0  0  0  0
    7.7418   -1.3090    0.0000 O   0  0  0  0  0  0  0  0  0  0  0  0
    9.8868   -4.1965    0.0000 C   0  0  0  0  0  0  0  0  0  0  0  0
   10.6293   -3.7840    0.0000 C   0  0  0  0  0  0  0  0  0  0  0  0
    9.8503   -5.0251    0.0000 C   0  0  0  0  0  0  0  0  0  0  0  0
   10.6009   -5.4466    0.0000 C   0  0  0  0  0  0  0  0  0  0  0  0
   11.3137   -5.0546    0.0000 C   0  0  0  0  0  0  0  0  0  0  0  0
   11.3385   -4.2055    0.0000 C   0  0  0  0  0  0  0  0  0  0  0  0
   12.0196   -5.4818    0.0000 O   0  0  0  0  0  0  0  0  0  0  0  0
   14.2923   -4.1603    0.0000 C   0  0  0  0  0  0  0  0  0  0  0  0
   14.9853   -3.7126    0.0000 C   0  0  0  0  0  0  0  0  0  0  0  0
   14.2923   -4.9853    0.0000 C   0  0  0  0  0  0  0  0  0  0  0  0
   18.4846   -4.1476    0.0000 N   0  0  0  0  0  0  0  0  0  0  0  0
   19.9135   -4.1476    0.0000 C   0  0  0  0  0  0  0  0  0  0  0  0
   20.6280   -3.7351    0.0000 N   0  0  0  0  0  0  0  0  0  0  0  0
   19.1991   -3.7351    0.0000 C   0  0  0  0  0  0  0  0  0  0  0  0
   19.1991   -2.9101    0.0000 C   0  0  0  0  0  0  0  0  0  0  0  0
   19.9135   -4.9726    0.0000 O   0  0  0  0  0  0  0  0  0  0  0  0
   15.6720   -1.7216    0.0000 C   0  0  0  0  0  0  0  0  0  0  0  0
   16.3865   -1.3091    0.0000 C   0  0  0  0  0  0  0  0  0  0  0  0
   16.3865   -0.4841    0.0000 C   0  0  0  0  0  0  0  0  0  0  0  0
   17.1010   -0.0716    0.0000 C   0  0  0  0  0  0  0  0  0  0  0  0
   17.1010    0.7534    0.0000 N   0  0  0  0  0  0  0  0  0  0  0  0
   17.8154    1.1659    0.0000 C   0  0  0  0  0  0  0  0  0  0  0  0
   17.8154    1.9909    0.0000 C   0  0  0  0  0  0  0  0  0  0  0  0
   18.5299    0.7534    0.0000 C   0  0  0  0  0  0  0  0  0  0  0  0
  2  3  2  0  0  0  0
  3  4  1  0  0  0  0
  4  5  2  0  0  0  0
  1  5  1  0  0  0  0
  6  7  2  0  0  0  0
  7  8  1  0  0  0  0
  8  9  2  0  0  0  0
  9 10  1  0  0  0  0
 10 11  2  0  0  0  0
  6 11  1  0  0  0  0
  6 12  1  0  0  0  0
 12 13  2  0  0  0  0
 13 14  1  0  0  0  0
 14 15  2  0  0  0  0
  7 15  1  0  0  0  0
 14 16  1  0  0  0  0
 16 17  1  0  0  0  0
 18 19  1  0  0  0  0
 17 19  1  0  0  0  0
 19 20  2  0  0  0  0
 18 21  1  0  0  0  0
 21 22  1  0  0  0  0
 22 23  1  0  0  0  0
 23 24  1  0  0  0  0
 24 25  1  0  0  0  0
 25 26  1  0  0  0  0
 26 27  1  0  0  0  0
 27 28  1  0  0  0  0
 28 29  1  0  0  0  0
 29 30  1  0  0  0  0
 30 31  1  0  0  0  0
 21 32  1  6  0  0  0
 22 33  2  0  0  0  0
 24 34  1  1  0  0  0
 27 35  1  1  0  0  0
 25 36  2  0  0  0  0
 28 37  2  0  0  0  0
 29 38  1  0  0  0  0
 31 39  2  0  0  0  0
 31 40  1  0  0  0  0
 42 43  1  0  0  0  0
 43 41  1  0  0  0  0
 44 45  1  0  0  0  0
 45 46  1  0  0  0  0
 45 47  2  0  0  0  0
 43 48  2  0  0  0  0
 42 46  1  6  0  0  0
 40 42  1  0  0  0  0
 49 50  1  0  0  0  0
 50 51  1  0  0  0  0
 51 52  1  0  0  0  0
 52 53  1  0  0  0  0
 41 49  1  0  0  0  0
 49 54  1  6  0  0  0
 50 55  2  0  0  0  0
 30 56  1  6  0  0  0
 53 57  2  0  0  0  0
 58 59  1  0  0  0  0
 59 60  1  0  0  0  0
 59 61  2  0  0  0  0
 17 58  1  6  0  0  0
 63 64  1  0  0  0  0
 64 65  1  0  0  0  0
 65 62  1  0  0  0  0
 62 66  1  0  0  0  0
 63 66  1  0  0  0  0
 53 65  1  0  0  0  0
 67 68  2  0  0  0  0
 62 67  1  1  0  0  0
 69 32  1  0  0  0  0
 70 71  2  0  0  0  0
 71 72  1  0  0  0  0
 72 73  2  0  0  0  0
 73 74  1  0  0  0  0
 74 69  2  0  0  0  0
 72 75  1  0  0  0  0
 69 70  1  0  0  0  0
 34 76  1  0  0  0  0
  2 76  1  0  0  0  0
 76  1  2  0  0  0  0
 35 77  1  0  0  0  0
 56 78  1  0  0  0  0
 80 81  2  0  0  0  0
 81 82  1  0  0  0  0
 82 83  2  0  0  0  0
 83 79  1  0  0  0  0
 78 80  1  0  0  0  0
 78 79  2  0  0  0  0
 82 84  1  0  0  0  0
 54 85  1  0  0  0  0
 85 86  1  0  0  0  0
 85 87  1  0  0  0  0
 67 88  1  0  0  0  0
 89 90  1  0  0  0  0
 89 91  1  0  0  0  0
 91 88  1  6  0  0  0
 91 92  1  0  0  0  0
 93 89  2  0  0  0  0
 52 94  1  1  0  0  0
 94 95  1  0  0  0  0
 95 96  1  0  0  0  0
 96 97  1  0  0  0  0
 97 98  1  0  0  0  0
 98 99  1  0  0  0  0
 99100  1  0  0  0  0
 99101  1  0  0  0  0
M  END
>  <IDNUMBER>
AAM 10376530

>  <Weight>
3.850000000000000e+001

$$$$
