
CDL SDfile Writer. v.200000

 81 84  0  0  1  0            999 V2000
    9.2394  -11.6848    0.0000 N   0  0  0  0  0  0  0  0  0  0  0  0
    8.9056  -12.4402    0.0000 C   0  0  0  0  0  0  0  0  0  0  0  0
    8.7615  -11.0173    0.0000 C   0  0  0  0  0  0  0  0  0  0  0  0
   10.0475  -11.6673    0.0000 C   0  0  0  0  0  0  0  0  0  0  0  0
    8.1291  -12.7214    0.0000 C   0  0  0  0  0  0  0  0  0  0  0  0
    9.4538  -12.9813    0.0000 C   0  0  0  0  0  0  0  0  0  0  0  0
    9.2920  -10.3849    0.0000 C   0  0  0  0  0  0  0  0  0  0  0  0
    7.9429  -11.0137    0.0000 O   0  0  0  0  0  0  0  0  0  0  0  0
   10.2337  -12.5598    0.0000 C   0  0  0  0  0  0  0  0  0  0  0  0
    7.1348  -12.2365    0.0000 N   0  0  0  0  0  0  0  0  0  0  0  0
    7.9885  -13.5259    0.0000 O   0  0  0  0  0  0  0  0  0  0  0  0
    8.8213   -9.7172    0.0000 N   0  0  0  0  0  0  0  0  0  0  0  0
   10.1072  -10.3849    0.0000 C   0  0  0  0  0  0  0  0  0  0  0  0
   10.9926  -12.8830    0.0000 O   0  0  0  0  0  0  0  0  0  0  0  0
    6.3618  -12.5140    0.0000 C   0  0  0  0  0  0  0  0  0  0  0  0
    9.3483   -9.0848    0.0000 C   0  0  0  0  0  0  0  0  0  0  0  0
   10.5218   -9.6716    0.0000 C   0  0  0  0  0  0  0  0  0  0  0  0
   10.5218  -11.0945    0.0000 O   0  0  0  0  0  0  0  0  0  0  0  0
    5.9085  -11.8254    0.0000 C   0  0  0  0  0  0  0  0  0  0  0  0
    5.9964  -13.3010    0.0000 C   0  0  0  0  0  0  0  0  0  0  0  0
    8.8774   -8.4208    0.0000 C   0  0  0  0  0  0  0  0  0  0  0  0
   10.1634   -9.1200    0.0000 O   0  0  0  0  0  0  0  0  0  0  0  0
    6.4672  -10.6132    0.0000 N   0  0  0  0  0  0  0  0  0  0  0  0
    5.4307  -12.4859    0.0000 O   0  0  0  0  0  0  0  0  0  0  0  0
    5.1672  -13.2940    0.0000 C   0  0  0  0  0  0  0  0  0  0  0  0
    6.4356  -13.9371    0.0000 O   0  0  0  0  0  0  0  0  0  0  0  0
    9.4045   -7.7918    0.0000 C   0  0  0  0  0  0  0  0  0  0  0  0
   10.0511   -8.4102    0.0000 N   0  0  0  0  0  0  0  0  0  0  0  0
    5.8839   -9.6751    0.0000 C   0  0  0  0  0  0  0  0  0  0  0  0
    4.7245  -12.6018    0.0000 C   0  0  0  0  0  0  0  0  0  0  0  0
    4.7983  -14.0249    0.0000 O   0  0  0  0  0  0  0  0  0  0  0  0
    9.1234   -7.0224    0.0000 C   0  0  0  0  0  0  0  0  0  0  0  0
   10.7573   -7.9921    0.0000 C   0  0  0  0  0  0  0  0  0  0  0  0
    6.3267   -9.0075    0.0000 C   0  0  0  0  0  0  0  0  0  0  0  0
    5.1777   -9.4291    0.0000 C   0  0  0  0  0  0  0  0  0  0  0  0
    5.0933  -11.8711    0.0000 C   0  0  0  0  0  0  0  0  0  0  0  0
    8.3083   -6.8818    0.0000 C   0  0  0  0  0  0  0  0  0  0  0  0
    9.6505   -6.3934    0.0000 O   0  0  0  0  0  0  0  0  0  0  0  0
   10.7678   -7.1559    0.0000 O   0  0  0  0  0  0  0  0  0  0  0  0
    5.8488   -8.3012    0.0000 N   0  0  0  0  0  0  0  0  0  0  0  0
    6.9205   -9.0075    0.0000 O   0  0  0  0  0  0  0  0  0  0  0  0
    4.4890   -9.8859    0.0000 C   0  0  0  0  0  0  0  0  0  0  0  0
    5.0899   -8.7510    0.0000 O   0  0  0  0  0  0  0  0  0  0  0  0
    4.3801  -12.2786    0.0000 C   0  0  0  0  0  0  0  0  0  0  0  0
    5.0933  -11.0453    0.0000 C   0  0  0  0  0  0  0  0  0  0  0  0
    7.5775   -7.3948    0.0000 N   0  0  0  0  0  0  0  0  0  0  0  0
    8.0272   -6.1124    0.0000 O   0  0  0  0  0  0  0  0  0  0  0  0
    6.1053   -7.5108    0.0000 C   0  0  0  0  0  0  0  0  0  0  0  0
    5.0266   -8.2978    0.0000 C   0  0  0  0  0  0  0  0  0  0  0  0
    3.6668  -11.8675    0.0000 C   0  0  0  0  0  0  0  0  0  0  0  0
    4.3801  -10.6308    0.0000 C   0  0  0  0  0  0  0  0  0  0  0  0
    6.7764   -7.0399    0.0000 O   0  0  0  0  0  0  0  0  0  0  0  0
    5.4342   -7.0329    0.0000 C   0  0  0  0  0  0  0  0  0  0  0  0
    4.7737   -7.5108    0.0000 C   0  0  0  0  0  0  0  0  0  0  0  0
    3.6668  -11.0453    0.0000 C   0  0  0  0  0  0  0  0  0  0  0  0
    5.4307   -6.2143    0.0000 O   0  0  0  0  0  0  0  0  0  0  0  0
    3.9972   -7.2578    0.0000 C   0  0  0  0  0  0  0  0  0  0  0  0
    2.9536  -10.6308    0.0000 O   0  0  0  0  0  0  0  0  0  0  0  0
    8.9021  -13.2590    0.0000 H   0  0  0  0  0  0  0  0  0  0  0  0
    9.6926  -11.0911    0.0000 H   0  0  0  0  0  0  0  0  0  0  0  0
   10.9329  -10.3849    0.0000 H   0  0  0  0  0  0  0  0  0  0  0  0
    6.7694  -13.2202    0.0000 H   0  0  0  0  0  0  0  0  0  0  0  0
    5.3710  -10.3849    0.0000 H   0  0  0  0  0  0  0  0  0  0  0  0
    4.4258   -9.2711    0.0000 H   0  0  0  0  0  0  0  0  0  0  0  0
    6.6815   -8.0940    0.0000 H   0  0  0  0  0  0  0  0  0  0  0  0
   11.4222   -8.3892    0.0000 C   0  0  0  0  0  0  0  0  0  0  0  0
   12.3386   -7.9891    0.0000 C   0  0  0  0  0  0  0  0  0  0  0  0
   13.1517   -8.4666    0.0000 C   0  0  0  0  0  0  0  0  0  0  0  0
   14.0035   -8.0279    0.0000 C   0  0  0  0  0  0  0  0  0  0  0  0
   15.0102   -8.5570    0.0000 C   0  0  0  0  0  0  0  0  0  0  0  0
   15.9395   -8.1053    0.0000 C   0  0  0  0  0  0  0  0  0  0  0  0
   16.8687   -8.5957    0.0000 C   0  0  0  0  0  0  0  0  0  0  0  0
   16.8687   -9.5637    0.0000 C   0  0  0  0  0  0  0  0  0  0  0  0
   16.0556   -9.8864    0.0000 C   0  0  0  0  0  0  0  0  0  0  0  0
   15.2038   -9.4863    0.0000 C   0  0  0  0  0  0  0  0  0  0  0  0
   14.2358   -9.8477    0.0000 C   0  0  0  0  0  0  0  0  0  0  0  0
   13.3065   -9.5637    0.0000 C   0  0  0  0  0  0  0  0  0  0  0  0
   12.6612  -10.0800    0.0000 C   0  0  0  0  0  0  0  0  0  0  0  0
   12.6612  -11.0093    0.0000 C   0  0  0  0  0  0  0  0  0  0  0  0
   13.3065  -11.4609    0.0000 C   0  0  0  0  0  0  0  0  0  0  0  0
   14.1196  -11.0480    0.0000 C   0  0  0  0  0  0  0  0  0  0  0  0
  1  2  1  0  0  0  0
  1  3  1  0  0  0  0
  1  4  1  0  0  0  0
  2  5  1  0  0  0  0
  2  6  1  0  0  0  0
  3  7  1  0  0  0  0
  3  8  2  0  0  0  0
  4  9  1  0  0  0  0
  5 10  1  0  0  0  0
  5 11  2  0  0  0  0
  7 12  1  0  0  0  0
  7 13  1  0  0  0  0
  9 14  1  6  0  0  0
 10 15  1  0  0  0  0
 12 16  1  0  0  0  0
 13 17  1  0  0  0  0
 13 18  1  1  0  0  0
 15 19  1  0  0  0  0
 15 20  1  0  0  0  0
 16 21  1  0  0  0  0
 16 22  2  0  0  0  0
 19 23  1  0  0  0  0
 19 24  2  0  0  0  0
 20 25  1  0  0  0  0
 20 26  1  6  0  0  0
 21 27  1  6  0  0  0
 21 28  1  1  0  0  0
 23 29  1  0  0  0  0
 25 30  1  0  0  0  0
 25 31  1  1  0  0  0
 27 32  1  0  0  0  0
 28 33  1  0  0  0  0
 29 34  1  0  0  0  0
 29 35  1  0  0  0  0
 30 36  1  0  0  0  0
 32 37  1  0  0  0  0
 32 38  1  6  0  0  0
 33 39  2  0  0  0  0
 34 40  1  0  0  0  0
 34 41  2  0  0  0  0
 35 42  1  0  0  0  0
 35 43  1  1  0  0  0
 36 44  2  0  0  0  0
 36 45  1  0  0  0  0
 37 46  1  0  0  0  0
 37 47  1  6  0  0  0
 40 48  1  0  0  0  0
 40 49  1  0  0  0  0
 44 50  1  0  0  0  0
 45 51  2  0  0  0  0
 46 52  1  0  0  0  0
 48 53  1  0  0  0  0
 49 54  1  0  0  0  0
 50 55  2  0  0  0  0
 53 56  1  6  0  0  0
 54 57  1  6  0  0  0
 55 58  1  0  0  0  0
  6  9  1  0  0  0  0
 48 52  1  0  0  0  0
 51 55  1  0  0  0  0
 53 54  1  0  0  0  0
  2 59  1  6  0  0  0
  7 60  1  6  0  0  0
 13 61  1  6  0  0  0
 15 62  1  6  0  0  0
 29 63  1  6  0  0  0
 35 64  1  6  0  0  0
 48 65  1  6  0  0  0
 66 33  1  0  0  0  0
 67 66  1  0  0  0  0
 68 67  1  0  0  0  0
 69 68  1  0  0  0  0
 70 69  1  0  0  0  0
 71 70  1  0  0  0  0
 72 71  1  0  0  0  0
 73 72  1  0  0  0  0
 74 73  1  0  0  0  0
 75 74  1  0  0  0  0
 76 75  1  0  0  0  0
 77 76  1  0  0  0  0
 78 77  1  0  0  0  0
 79 78  1  0  0  0  0
 80 79  1  0  0  0  0
 81 80  1  0  0  0  0
M  END
>  <IDNUMBER>
AAM 10376335                                                         

>  <Weight>
1.256000000000000e+002    

$$$$

