[NO NAME]
  CHEMW2  0808111106092D                              
Created with ChemWriter - http://chemwriter.com
 25 27  0  0  0  0            999 V2000
    3.9042   -7.9875    0.0000 C   0  0  0  0  0  0  0  0  0  0  0  0
    7.0417   -5.8542    0.0000 N   0  0  0  0  0  0  0  0  0  0  0  0
    6.0542   -6.7500    0.0000 N   0  0  0  0  0  0  0  0  0  0  0  0
    4.6292   -8.4042    0.0000 S   0  0  0  0  0  0  0  0  0  0  0  0
    6.2292   -5.9417    0.0000 C   0  0  0  0  0  0  0  0  0  0  0  0
    3.9042   -7.1542    0.0000 C   0  0  0  0  0  0  0  0  0  0  0  0
    3.2000   -8.3917    0.0000 C   0  0  0  0  0  0  0  0  0  0  0  0
    7.3917   -6.5917    0.0000 C   0  0  0  0  0  0  0  0  0  0  0  0
    6.7750   -7.1542    0.0000 C   0  0  0  0  0  0  0  0  0  0  0  0
    5.3500   -7.1542    0.0000 C   0  0  0  0  0  0  0  0  0  0  0  0
    5.3500   -7.9917    0.0000 C   0  0  0  0  0  0  0  0  0  0  0  0
    8.9250   -9.2417    0.0000 C   0  0  0  0  0  0  0  0  0  0  0  0
    3.2000   -9.2167    0.0000 Cl  0  0  0  0  0  0  0  0  0  0  0  0
    4.6292   -6.7375    0.0000 Cl  0  0  0  0  0  0  0  0  0  0  0  0
    7.4917   -8.4167    0.0000 C   0  0  0  0  0  0  0  0  0  0  0  0
    9.6417   -9.6542    0.0000 Cl  0  0  0  0  0  0  0  0  0  0  0  0
    6.0625   -8.4042    0.0000 C   0  0  0  0  0  0  0  0  0  0  0  0
    6.7792   -8.0042    0.0000 C   0  0  0  0  0  0  0  0  0  0  0  0
    8.9250   -8.4167    0.0000 C   0  0  0  0  0  0  0  0  0  0  0  0
    8.2167   -9.6500    0.0000 C   0  0  0  0  0  0  0  0  0  0  0  0
    8.2167   -8.0042    0.0000 C   0  0  0  0  0  0  0  0  0  0  0  0
    7.4917   -9.2417    0.0000 C   0  0  0  0  0  0  0  0  0  0  0  0
    2.4792   -7.1542    0.0000 C   0  0  0  0  0  0  0  0  0  0  0  0
    3.2000   -6.7500    0.0000 C   0  0  0  0  0  0  0  0  0  0  0  0
    2.4792   -7.9875    0.0000 C   0  0  0  0  0  0  0  0  0  0  0  0
  2  5  2  0  0  0  0
  3 10  1  0  0  0  0
  4  1  1  0  0  0  0
  5  3  1  0  0  0  0
  6  1  1  0  0  0  0
  7  1  2  0  0  0  0
  8  9  2  0  0  0  0
  9  3  1  0  0  0  0
 10 11  1  0  0  0  0
 11  4  1  0  0  0  0
 12 20  1  0  0  0  0
 13  7  1  0  0  0  0
 14  6  1  0  0  0  0
 15 18  1  0  0  0  0
 16 12  1  0  0  0  0
 17 11  1  0  0  0  0
 18 17  1  0  0  0  0
 19 21  1  0  0  0  0
 20 22  2  0  0  0  0
 21 15  2  0  0  0  0
 22 15  1  0  0  0  0
 23 25  2  0  0  0  0
 24  6  2  0  0  0  0
 25  7  1  0  0  0  0
 24 23  1  0  0  0  0
  8  2  1  0  0  0  0
 19 12  2  0  0  0  0
M  END
