[NO NAME]
  CHEMW2  0808111107172D                              
Created with ChemWriter - http://chemwriter.com
 82 90  0  0  1  0            999 V2000
    0.0000    0.0000    0.0000 Co  0  0  0  0  0  0  0  0  0  0  0  0
   -0.7073   -1.7021    0.0000 C   0  0  0  0  0  0  0  0  0  0  0  0
   -0.8192   -0.8986    0.0000 N   0  0  0  0  0  0  0  0  0  0  0  0
   -0.8192    0.7995    0.0000 N   0  0  0  0  0  0  0  0  0  0  0  0
   -0.7073    1.6030    0.0000 C   0  0  0  0  0  0  0  0  0  0  0  0
   -1.4197    1.9798    0.0000 C   0  0  0  0  0  0  0  0  0  0  0  0
    0.7339    1.6030    0.0000 C   0  0  0  0  0  0  0  0  0  0  0  0
    0.8582    0.7995    0.0000 N   0  0  0  0  0  0  0  0  0  0  0  0
    1.6824    0.6504    0.0000 C   0  0  0  0  0  0  0  0  0  0  0  0
    2.0965   -0.0496    0.0000 C   0  0  0  0  0  0  0  0  0  0  0  0
    1.6824   -0.7537    0.0000 C   0  0  0  0  0  0  0  0  0  0  0  0
    0.8582   -0.8986    0.0000 N   0  0  0  0  0  0  0  0  0  0  0  0
    0.7339   -1.7021    0.0000 C   0  0  0  0  0  0  0  0  0  0  0  0
    1.4712   -2.0831    0.0000 C   0  0  0  0  0  0  0  0  0  0  0  0
    1.5935   -2.8990    0.0000 C   0  0  0  0  0  0  0  0  0  0  0  0
    2.3613   -3.2009    0.0000 C   0  0  0  0  0  0  0  0  0  0  0  0
    2.4836   -4.0168    0.0000 C   0  0  0  0  0  0  0  0  0  0  0  0
    2.0634   -1.5033    0.0000 C   0  0  0  0  0  0  0  0  0  0  0  0
    2.7015   -2.0262    0.0000 C   0  0  0  0  0  0  0  0  0  0  0  0
    2.8353   -1.2121    0.0000 C   0  0  0  0  0  0  0  0  0  0  0  0
    2.2220    2.3217    0.0000 C   0  0  0  0  0  0  0  0  0  0  0  0
    0.0299    2.0129    0.0000 C   0  0  0  0  0  0  0  0  0  0  0  0
    0.0299    2.8379    0.0000 C   0  0  0  0  0  0  0  0  0  0  0  0
    0.0299   -2.1163    0.0000 C   0  0  0  0  0  0  0  0  0  0  0  0
    0.0299   -2.9413    0.0000 C   0  0  0  0  0  0  0  0  0  0  0  0
   -1.6309   -0.7537    0.0000 C   0  0  0  0  0  0  0  0  0  0  0  0
   -2.4278   -0.5402    0.0000 H   0  0  0  0  0  0  0  0  0  0  0  0
   -1.6309    0.6752    0.0000 C   0  0  0  0  0  0  0  0  0  0  0  0
   -2.4278    0.4617    0.0000 C   0  0  0  0  0  0  0  0  0  0  0  0
   -1.4197   -2.9081    0.0000 C   0  0  0  0  0  0  0  0  0  0  0  0
    2.0634    1.4000    0.0000 C   0  0  0  0  0  0  0  0  0  0  0  0
    2.7779    1.8125    0.0000 C   0  0  0  0  0  0  0  0  0  0  0  0
    3.4923    1.4000    0.0000 C   0  0  0  0  0  0  0  0  0  0  0  0
    4.2068    1.8125    0.0000 C   0  0  0  0  0  0  0  0  0  0  0  0
    4.2068    2.6375    0.0000 O   0  0  0  0  0  0  0  0  0  0  0  0
    4.9213    1.4000    0.0000 N   0  0  0  0  0  0  0  0  0  0  0  0
    1.4712    2.8048    0.0000 C   0  0  0  0  0  0  0  0  0  0  0  0
    2.1857    3.2173    0.0000 C   0  0  0  0  0  0  0  0  0  0  0  0
    2.1857    4.0423    0.0000 O   0  0  0  0  0  0  0  0  0  0  0  0
    2.9001    2.8048    0.0000 N   0  0  0  0  0  0  0  0  0  0  0  0
    1.4712    1.9798    0.0000 C   0  0  0  0  0  0  0  0  0  0  0  0
   -2.7264    0.9875    0.0000 C   0  0  0  0  0  0  0  0  0  0  0  0
   -3.4408    1.4000    0.0000 C   0  0  0  0  0  0  0  0  0  0  0  0
   -3.4408    2.2250    0.0000 O   0  0  0  0  0  0  0  0  0  0  0  0
   -4.1553    0.9875    0.0000 N   0  0  0  0  0  0  0  0  0  0  0  0
   -2.0119   -1.5033    0.0000 C   0  0  0  0  0  0  0  0  0  0  0  0
   -2.7264   -1.9158    0.0000 C   0  0  0  0  0  0  0  0  0  0  0  0
   -3.4408   -1.5033    0.0000 C   0  0  0  0  0  0  0  0  0  0  0  0
   -3.4408   -0.6783    0.0000 O   0  0  0  0  0  0  0  0  0  0  0  0
   -4.1553   -1.9158    0.0000 N   0  0  0  0  0  0  0  0  0  0  0  0
   -2.1342   -3.3206    0.0000 C   0  0  0  0  0  0  0  0  0  0  0  0
   -2.8486   -3.7331    0.0000 C   0  0  0  0  0  0  0  0  0  0  0  0
   -3.5631   -3.3206    0.0000 O   0  0  0  0  0  0  0  0  0  0  0  0
   -2.8486   -4.5581    0.0000 N   0  0  0  0  0  0  0  0  0  0  0  0
   -3.5631   -4.9706    0.0000 C   0  0  0  0  0  0  0  0  0  0  0  0
   -2.1342   -2.4956    0.0000 C   0  0  0  0  0  0  0  0  0  0  0  0
   -1.4197   -2.0831    0.0000 C   0  0  0  0  0  0  0  0  0  0  0  0
   -3.5631   -5.7956    0.0000 C   0  0  0  0  0  0  0  0  0  0  0  0
   -2.8487   -6.2081    0.0000 O   0  0  0  0  0  0  0  0  0  0  0  0
   -4.2776   -6.2081    0.0000 C   0  0  0  0  0  0  0  0  0  0  0  0
   -3.6737   -7.0331    0.0000 O   0  0  0  0  0  0  0  0  0  0  0  0
    1.8382   -4.5307    0.0000 O   0  0  0  0  0  0  0  0  0  0  0  0
    3.2513   -4.3188    0.0000 N   0  0  0  0  0  0  0  0  0  0  0  0
   -2.0119    1.4000    0.0000 C   0  0  0  0  0  0  0  0  0  0  0  0
   -2.2254    2.1969    0.0000 C   0  0  0  0  0  0  0  0  0  0  0  0
   -1.5381    2.7963    0.0000 C   0  0  0  0  0  0  0  0  0  0  0  0
   -2.3043    3.1020    0.0000 C   0  0  0  0  0  0  0  0  0  0  0  0
   -2.4228    3.9185    0.0000 C   0  0  0  0  0  0  0  0  0  0  0  0
   -3.1891    4.2241    0.0000 O   0  0  0  0  0  0  0  0  0  0  0  0
   -1.7749    4.4293    0.0000 N   0  0  0  0  0  0  0  0  0  0  0  0
   -0.4587   -8.4850    0.0000 C   0  0  0  0  0  0  0  0  0  0  0  0
   -1.1261   -8.9700    0.0000 O   0  0  0  0  0  0  0  0  0  0  0  0
   -1.7936   -8.4851    0.0000 C   0  0  0  0  0  0  0  0  0  0  0  0
   -2.5782   -8.7402    0.0000 C   0  0  0  0  0  0  0  0  0  0  0  0
   -2.7497   -9.5471    0.0000 O   0  0  0  0  0  0  0  0  0  0  0  0
   -0.7137   -7.7005    0.0000 C   0  0  0  0  0  0  0  0  0  0  0  0
   -0.2288   -7.0330    0.0000 O   0  0  0  0  0  0  0  0  0  0  0  0
   -1.5387   -7.7005    0.0000 C   0  0  0  0  0  0  0  0  0  0  0  0
   -2.0237   -7.0331    0.0000 O   0  0  0  0  0  0  0  0  0  0  0  0
   -2.8487   -7.0331    0.0000 P   0  0  0  0  0  0  0  0  0  0  0  0
   -2.8487   -7.8581    0.0000 O   0  0  0  0  0  0  0  0  0  0  0  0
    0.3259   -8.7399    0.0000 O   0  0  0  0  0  0  0  0  0  0  0  0
  3  1  1  0  0  0  0
 24  2  2  0  0  0  0
  2  3  1  0  0  0  0
 57  2  1  0  0  0  0
 26  3  1  0  0  0  0
 28  4  1  0  0  0  0
  4  5  2  0  0  0  0
  6  5  1  0  0  0  0
  5 22  1  0  0  0  0
  6 66  1  6  0  0  0
 64  6  1  0  0  0  0
 22  7  2  0  0  0  0
  7  8  1  0  0  0  0
 41  7  1  0  0  0  0
  8  9  2  0  0  0  0
  9 10  1  0  0  0  0
 31  9  1  0  0  0  0
 10 11  2  0  0  0  0
 11 12  1  0  0  0  0
 11 18  1  0  0  0  0
 12 13  2  0  0  0  0
 13 14  1  0  0  0  0
 24 13  1  0  0  0  0
 14 15  1  6  0  0  0
 14 18  1  0  0  0  0
 15 16  1  0  0  0  0
 16 17  1  0  0  0  0
 17 62  2  0  0  0  0
 17 63  1  0  0  0  0
 18 19  1  0  0  0  0
 18 20  1  0  0  0  0
 41 21  1  0  0  0  0
 22 23  1  0  0  0  0
 24 25  1  0  0  0  0
 26 46  1  0  0  0  0
 26 28  1  0  0  0  0
 26 27  1  1  0  0  0
 28 64  1  0  0  0  0
 28 29  1  6  0  0  0
 57 30  1  1  0  0  0
 31 41  1  0  0  0  0
 31 32  1  6  0  0  0
 32 33  1  0  0  0  0
 33 34  1  0  0  0  0
 34 35  2  0  0  0  0
 34 36  1  0  0  0  0
 37 38  1  0  0  0  0
 41 37  1  1  0  0  0
 38 40  1  0  0  0  0
 38 39  2  0  0  0  0
 64 42  1  1  0  0  0
 42 43  1  0  0  0  0
 43 44  2  0  0  0  0
 43 45  1  0  0  0  0
 46 57  1  0  0  0  0
 46 47  1  1  0  0  0
 47 48  1  0  0  0  0
 48 49  2  0  0  0  0
 48 50  1  0  0  0  0
 56 51  1  0  0  0  0
 51 52  1  0  0  0  0
 52 53  2  0  0  0  0
 52 54  1  0  0  0  0
 55 54  1  0  0  0  0
 58 55  1  0  0  0  0
 57 56  1  0  0  0  0
 58 59  1  0  0  0  0
 58 60  1  6  0  0  0
 80 59  1  0  0  0  0
 80 61  2  0  0  0  0
 64 65  1  0  0  0  0
 66 67  1  0  0  0  0
 67 68  1  0  0  0  0
 68 70  1  0  0  0  0
 68 69  2  0  0  0  0
 71 82  1  1  0  0  0
 71 76  1  0  0  0  0
 71 72  1  0  0  0  0
 73 72  1  0  0  0  0
 78 73  1  0  0  0  0
 73 74  1  6  0  0  0
 74 75  1  0  0  0  0
 76 78  1  0  0  0  0
 76 77  1  1  0  0  0
 78 79  1  1  0  0  0
 80 79  1  0  0  0  0
 80 81  1  0  0  0  0
  1  8  1  0  0  0  0
  1  4  1  0  0  0  0
  1 12  1  0  0  0  0
M  END
