[NO NAME]
  CHEMW2  0808111105242D                              
Created with ChemWriter - http://chemwriter.com
100103  0  0  1  0            999 V2000
   -0.3317  -10.3342    0.0000 N   0  0  0  0  0  0  0  0  0  0  0  0
    0.3785   -9.9216    0.0000 C   0  0  0  0  0  0  0  0  0  0  0  0
    1.0929  -10.3299    0.0000 C   0  0  0  0  0  0  0  0  0  0  0  0
    1.8032   -9.9174    0.0000 N   0  0  0  0  0  0  0  0  0  0  0  0
    2.5177  -10.3257    0.0000 C   0  0  0  0  0  0  0  0  0  0  0  0
    3.2321   -9.9131    0.0000 C   0  0  0  0  0  0  0  0  0  0  0  0
    3.9423  -10.3214    0.0000 N   0  0  0  0  0  0  0  0  0  0  0  0
    4.6568   -9.9089    0.0000 C   0  0  0  0  0  0  0  0  0  0  0  0
    5.3669  -10.3171    0.0000 C   0  0  0  0  0  0  0  0  0  0  0  0
    6.2090   -9.8749    0.0000 N   0  0  0  0  0  0  0  0  0  0  0  0
    7.2934  -10.3767    0.0000 C   0  0  0  0  0  0  0  0  0  0  0  0
    7.9909   -9.8621    0.0000 C   0  0  0  0  0  0  0  0  0  0  0  0
    8.8670  -10.2788    0.0000 N   0  0  0  0  0  0  0  0  0  0  0  0
    9.6580   -9.7388    0.0000 C   0  0  0  0  0  0  0  0  0  0  0  0
   10.4107  -10.1981    0.0000 C   0  0  0  0  0  0  0  0  0  0  0  0
   11.1592   -9.6963    0.0000 N   0  0  0  0  0  0  0  0  0  0  0  0
   12.0353  -10.2321    0.0000 C   0  0  0  0  0  0  0  0  0  0  0  0
   12.7455   -9.8195    0.0000 C   0  0  0  0  0  0  0  0  0  0  0  0
    0.3766   -9.0966    0.0000 C   0  0  0  0  0  0  0  0  0  0  0  0
    1.0922   -8.6825    0.0000 C   0  0  0  0  0  0  0  0  0  0  0  0
    1.0733   -7.5512    0.0000 C   0  0  0  0  0  0  0  0  0  0  0  0
    1.8224   -8.6809    0.0000 C   0  0  0  0  0  0  0  0  0  0  0  0
    1.0948  -11.1550    0.0000 O   0  0  0  0  0  0  0  0  0  0  0  0
    2.5195  -11.1507    0.0000 C   0  0  0  0  0  0  0  0  0  0  0  0
    3.2303   -9.0881    0.0000 O   0  0  0  0  0  0  0  0  0  0  0  0
    4.6549   -9.0839    0.0000 C   0  0  0  0  0  0  0  0  0  0  0  0
    5.3705   -8.6698    0.0000 C   0  0  0  0  0  0  0  0  0  0  0  0
    4.0353   -8.4731    0.0000 C   0  0  0  0  0  0  0  0  0  0  0  0
    5.3686   -7.8447    0.0000 C   0  0  0  0  0  0  0  0  0  0  0  0
    7.9508   -8.9392    0.0000 O   0  0  0  0  0  0  0  0  0  0  0  0
    9.6646   -9.0073    0.0000 C   0  0  0  0  0  0  0  0  0  0  0  0
   10.3802   -8.5932    0.0000 C   0  0  0  0  0  0  0  0  0  0  0  0
   10.3784   -7.7681    0.0000 C   0  0  0  0  0  0  0  0  0  0  0  0
    9.6609   -7.3572    0.0000 N   0  0  0  0  0  0  0  0  0  0  0  0
   13.4625  -10.2312    0.0000 C   0  0  0  0  0  0  0  0  0  0  0  0
   12.7444   -8.9945    0.0000 C   0  0  0  0  0  0  0  0  0  0  0  0
   14.1784   -9.8178    0.0000 C   0  0  0  0  0  0  0  0  0  0  0  0
   12.0413  -10.9083    0.0000 C   0  0  0  0  0  0  0  0  0  0  0  0
   11.3471  -11.5351    0.0000 N   0  0  0  0  0  0  0  0  0  0  0  0
   12.9544  -11.2427    0.0000 O   0  0  0  0  0  0  0  0  0  0  0  0
   10.4128  -10.9923    0.0000 O   0  0  0  0  0  0  0  0  0  0  0  0
   12.0422  -12.2465    0.0000 C   0  0  0  0  0  0  0  0  0  0  0  0
   12.0410  -13.0379    0.0000 C   0  0  0  0  0  0  0  0  0  0  0  0
   12.8047  -11.8326    0.0000 C   0  0  0  0  0  0  0  0  0  0  0  0
   13.5219  -12.2437    0.0000 C   0  0  0  0  0  0  0  0  0  0  0  0
   14.2334  -11.8298    0.0000 C   0  0  0  0  0  0  0  0  0  0  0  0
   13.5235  -13.0687    0.0000 C   0  0  0  0  0  0  0  0  0  0  0  0
   14.2364  -13.4799    0.0000 C   0  0  0  0  0  0  0  0  0  0  0  0
   14.9522  -13.0661    0.0000 C   0  0  0  0  0  0  0  0  0  0  0  0
   14.9506  -12.2410    0.0000 C   0  0  0  0  0  0  0  0  0  0  0  0
   12.6766  -13.4801    0.0000 N   0  0  0  0  0  0  0  0  0  0  0  0
   11.2471  -13.2861    0.0000 O   0  0  0  0  0  0  0  0  0  0  0  0
   12.6753  -14.1589    0.0000 C   0  0  0  0  0  0  0  0  0  0  0  0
   13.4832  -14.1601    0.0000 C   0  0  0  0  0  0  0  0  0  0  0  0
   12.2515  -14.5848    0.0000 C   0  0  0  0  0  0  0  0  0  0  0  0
   13.7895  -14.6922    0.0000 C   0  0  0  0  0  0  0  0  0  0  0  0
   11.9060  -15.4795    0.0000 N   0  0  0  0  0  0  0  0  0  0  0  0
   10.7888  -15.4981    0.0000 C   0  0  0  0  0  0  0  0  0  0  0  0
   11.7096  -14.0234    0.0000 O   0  0  0  0  0  0  0  0  0  0  0  0
   10.5233  -14.7453    0.0000 C   0  0  0  0  0  0  0  0  0  0  0  0
   10.2433  -16.0866    0.0000 C   0  0  0  0  0  0  0  0  0  0  0  0
   11.0772  -14.2887    0.0000 O   0  0  0  0  0  0  0  0  0  0  0  0
    9.1584  -14.9144    0.0000 C   0  0  0  0  0  0  0  0  0  0  0  0
    8.4537  -14.4524    0.0000 C   0  0  0  0  0  0  0  0  0  0  0  0
    9.1602  -15.7054    0.0000 C   0  0  0  0  0  0  0  0  0  0  0  0
    8.6190  -16.1237    0.0000 C   0  0  0  0  0  0  0  0  0  0  0  0
    8.6166  -16.9999    0.0000 N   0  0  0  0  0  0  0  0  0  0  0  0
    7.8251  -15.6704    0.0000 O   0  0  0  0  0  0  0  0  0  0  0  0
    7.2825  -11.2443    0.0000 C   0  0  0  0  0  0  0  0  0  0  0  0
    8.0342  -11.5308    0.0000 C   0  0  0  0  0  0  0  0  0  0  0  0
    9.7457  -14.3716    0.0000 N   0  0  0  0  0  0  0  0  0  0  0  0
    5.3691  -11.1411    0.0000 O   0  0  0  0  0  0  0  0  0  0  0  0
    8.0334  -12.3244    0.0000 C   0  0  0  0  0  0  0  0  0  0  0  0
    8.7394  -12.6179    0.0000 C   0  0  0  0  0  0  0  0  0  0  0  0
    8.7394  -13.5365    0.0000 N   0  0  0  0  0  0  0  0  0  0  0  0
    7.4916  -14.4087    0.0000 O   0  0  0  0  0  0  0  0  0  0  0  0
   13.5464  -15.4060    0.0000 N   0  0  0  0  0  0  0  0  0  0  0  0
   14.2233  -15.8808    0.0000 C   0  0  0  0  0  0  0  0  0  0  0  0
   14.8831  -15.3827    0.0000 N   0  0  0  0  0  0  0  0  0  0  0  0
   14.5881  -14.7140    0.0000 C   0  0  0  0  0  0  0  0  0  0  0  0
   10.2023  -16.8748    0.0000 C   0  0  0  0  0  0  0  0  0  0  0  0
    9.7461  -17.3409    0.0000 O   0  0  0  0  0  0  0  0  0  0  0  0
   10.9110  -17.2934    0.0000 O   0  0  0  0  0  0  0  0  0  0  0  0
    1.8039  -11.5648    0.0000 C   0  0  0  0  0  0  0  0  0  0  0  0
    1.7989  -12.3882    0.0000 C   0  0  0  0  0  0  0  0  0  0  0  0
    2.5341  -12.8944    0.0000 O   0  0  0  0  0  0  0  0  0  0  0  0
    1.0331  -12.8985    0.0000 O   0  0  0  0  0  0  0  0  0  0  0  0
   -0.9973  -10.0083    0.0000 C   0  0  0  0  0  0  0  0  0  0  0  0
   -4.6100  -10.3469    0.0000 N   0  0  0  0  0  0  0  0  0  0  0  0
   -3.8955   -9.9344    0.0000 C   0  0  0  0  0  0  0  0  0  0  0  0
   -3.8974   -9.1094    0.0000 C   0  0  0  0  0  0  0  0  0  0  0  0
   -3.1861   -8.6953    0.0000 C   0  0  0  0  0  0  0  0  0  0  0  0
   -4.6148   -8.6985    0.0000 C   0  0  0  0  0  0  0  0  0  0  0  0
   -4.6166   -7.8735    0.0000 C   0  0  0  0  0  0  0  0  0  0  0  0
   -2.4708   -9.9302    0.0000 S   0  0  0  0  0  0  0  0  0  0  0  0
   -3.1849  -10.3379    0.0000 C   0  0  0  0  0  0  0  0  0  0  0  0
   -2.9328  -11.2684    0.0000 N   0  0  0  0  0  0  0  0  0  0  0  0
   -1.9768  -11.2694    0.0000 C   0  0  0  0  0  0  0  0  0  0  0  0
   -1.7568  -10.3397    0.0000 C   0  0  0  0  0  0  0  0  0  0  0  0
   -0.9791   -9.1835    0.0000 O   0  0  0  0  0  0  0  0  0  0  0  0
  6 25  2  0  0  0  0
 46 50  2  0  0  0  0
 12 13  1  0  0  0  0
 43 51  1  0  0  0  0
  8 26  1  1  0  0  0
 43 52  2  0  0  0  0
  6  7  1  0  0  0  0
 51 53  1  0  0  0  0
 26 27  1  0  0  0  0
 53 54  1  1  0  0  0
 13 14  1  0  0  0  0
 53 55  1  0  0  0  0
 26 28  1  0  0  0  0
 54 56  1  0  0  0  0
  3  4  1  0  0  0  0
 55 57  1  0  0  0  0
 27 29  1  0  0  0  0
 57 58  1  0  0  0  0
  9 72  2  0  0  0  0
 55 59  2  0  0  0  0
 14 15  1  0  0  0  0
 58 60  1  0  0  0  0
 12 30  2  0  0  0  0
 58 61  1  6  0  0  0
  7  8  1  0  0  0  0
 60 62  2  0  0  0  0
 60 71  1  0  0  0  0
 14 31  1  6  0  0  0
 71 63  1  0  0  0  0
 15 16  1  0  0  0  0
 31 32  1  0  0  0  0
 63 65  1  1  0  0  0
 65 66  1  0  0  0  0
 32 33  1  0  0  0  0
 66 67  1  0  0  0  0
 16 17  1  0  0  0  0
 66 68  2  0  0  0  0
 33 34  1  0  0  0  0
 11 69  1  6  0  0  0
 15 41  2  0  0  0  0
 69 70  1  0  0  0  0
  8  9  1  0  0  0  0
 18 35  1  0  0  0  0
 17 18  1  1  0  0  0
 70 73  1  0  0  0  0
 18 36  1  0  0  0  0
 73 74  1  0  0  0  0
  4  5  1  0  0  0  0
 74 75  1  0  0  0  0
 75 64  1  0  0  0  0
 35 37  1  0  0  0  0
 64 76  2  0  0  0  0
  2 19  1  1  0  0  0
 17 38  1  0  0  0  0
  9 10  1  0  0  0  0
 38 39  1  0  0  0  0
 56 77  1  0  0  0  0
 77 78  2  0  0  0  0
 78 79  1  0  0  0  0
 79 80  1  0  0  0  0
 80 56  2  0  0  0  0
 19 20  1  0  0  0  0
 61 81  1  0  0  0  0
 38 40  2  0  0  0  0
 81 82  2  0  0  0  0
  2  3  1  0  0  0  0
 81 83  1  0  0  0  0
 20 21  1  0  0  0  0
 24 84  1  0  0  0  0
 39 42  1  0  0  0  0
 84 85  1  0  0  0  0
 10 11  1  0  0  0  0
 85 86  2  0  0  0  0
 42 43  1  0  0  0  0
 85 87  1  0  0  0  0
 64 63  1  0  0  0  0
 20 22  1  0  0  0  0
  1 88  1  0  0  0  0
 42 44  1  6  0  0  0
  5  6  1  0  0  0  0
 89 90  1  0  0  0  0
 90 96  1  0  0  0  0
 44 45  1  0  0  0  0
 90 91  1  1  0  0  0
  3 23  2  0  0  0  0
 91 92  1  0  0  0  0
 45 46  1  0  0  0  0
 91 93  1  0  0  0  0
 11 12  1  0  0  0  0
 93 94  1  0  0  0  0
 45 47  2  0  0  0  0
  5 24  1  1  0  0  0
 47 48  1  0  0  0  0
  1  2  1  0  0  0  0
 48 49  2  0  0  0  0
 95 96  1  0  0  0  0
 96 97  2  0  0  0  0
 97 98  1  0  0  0  0
 98 99  1  0  0  0  0
 99 95  1  0  0  0  0
 99 88  1  0  0  0  0
 49 50  1  0  0  0  0
 88100  2  0  0  0  0
M  END
