[NO NAME]
  CHEMW2  0808111107542D                              
Created with ChemWriter - http://chemwriter.com
 90 96  0  0  1  0            999 V2000
    9.4018   -7.7580    0.0000 C   0  0  0  0  0  0  0  0  0  0  0  0
    9.4018   -8.5830    0.0000 C   0  0  0  0  0  0  0  0  0  0  0  0
    8.6873   -7.3455    0.0000 C   0  0  0  0  0  0  0  0  0  0  0  0
    8.6873   -8.9955    0.0000 C   0  0  0  0  0  0  0  0  0  0  0  0
    7.9728   -7.7580    0.0000 C   0  0  0  0  0  0  0  0  0  0  0  0
    7.9728   -8.5830    0.0000 C   0  0  0  0  0  0  0  0  0  0  0  0
   10.1163   -7.3455    0.0000 C   0  0  0  0  0  0  0  0  0  0  0  0
   10.8308   -7.7580    0.0000 C   0  0  0  0  0  0  0  0  0  0  0  0
   11.5452   -7.3455    0.0000 S   0  0  0  0  0  0  0  0  0  0  0  0
   12.2597   -7.7580    0.0000 S   0  0  0  0  0  0  0  0  0  0  0  0
   12.9742   -7.3455    0.0000 S   0  0  0  0  0  0  0  0  0  0  0  0
   13.6887   -7.7579    0.0000 C   0  0  0  0  0  0  0  0  0  0  0  0
   10.1163   -8.9955    0.0000 C   0  0  0  0  0  0  0  0  0  0  0  0
   10.8308   -8.5830    0.0000 O   0  0  0  0  0  0  0  0  0  0  0  0
   11.5452   -8.9955    0.0000 C   0  0  0  0  0  0  0  0  0  0  0  0
   12.9742   -8.9955    0.0000 C   0  0  0  0  0  0  0  0  0  0  0  0
   12.9742   -9.8205    0.0000 C   0  0  0  0  0  0  0  0  0  0  0  0
   12.2597   -8.5830    0.0000 O   0  0  0  0  0  0  0  0  0  0  0  0
   12.2597  -10.2330    0.0000 C   0  0  0  0  0  0  0  0  0  0  0  0
   11.5452   -9.8205    0.0000 C   0  0  0  0  0  0  0  0  0  0  0  0
   13.6887   -8.5830    0.0000 C   0  0  0  0  0  0  0  0  0  0  0  0
   13.6887  -10.2330    0.0000 N   0  0  0  0  0  0  0  0  0  0  0  0
   12.2597  -11.0580    0.0000 O   0  0  0  0  0  0  0  0  0  0  0  0
   10.8308  -10.2330    0.0000 O   0  0  0  0  0  0  0  0  0  0  0  0
   14.4031   -9.8205    0.0000 O   0  0  0  0  0  0  0  0  0  0  0  0
   15.1176  -10.2331    0.0000 C   0  0  0  0  0  0  0  0  0  0  0  0
   16.5466  -10.2331    0.0000 C   0  0  0  0  0  0  0  0  0  0  0  0
   16.5466  -11.0581    0.0000 C   0  0  0  0  0  0  0  0  0  0  0  0
   15.8321   -9.8206    0.0000 O   0  0  0  0  0  0  0  0  0  0  0  0
   15.8321  -11.4706    0.0000 C   0  0  0  0  0  0  0  0  0  0  0  0
   15.1176  -11.0581    0.0000 C   0  0  0  0  0  0  0  0  0  0  0  0
   17.2610   -9.8206    0.0000 C   0  0  0  0  0  0  0  0  0  0  0  0
   17.2610  -11.4706    0.0000 S   0  0  0  0  0  0  0  0  0  0  0  0
   17.9756  -11.0581    0.0000 C   0  0  0  0  0  0  0  0  0  0  0  0
   15.8321  -12.2956    0.0000 O   0  0  0  0  0  0  0  0  0  0  0  0
   10.8308  -11.0580    0.0000 C   0  0  0  0  0  0  0  0  0  0  0  0
   11.5453  -11.4705    0.0000 C   0  0  0  0  0  0  0  0  0  0  0  0
   11.5453  -12.2955    0.0000 C   0  0  0  0  0  0  0  0  0  0  0  0
   10.8308  -12.7080    0.0000 C   0  0  0  0  0  0  0  0  0  0  0  0
   10.1163  -11.4705    0.0000 O   0  0  0  0  0  0  0  0  0  0  0  0
   10.1163  -12.2955    0.0000 C   0  0  0  0  0  0  0  0  0  0  0  0
   12.2597  -12.7080    0.0000 O   0  0  0  0  0  0  0  0  0  0  0  0
   12.9742  -12.2955    0.0000 C   0  0  0  0  0  0  0  0  0  0  0  0
   10.8308  -13.5330    0.0000 N   0  0  0  0  0  0  0  0  0  0  0  0
   10.1162  -13.9455    0.0000 C   0  0  0  0  0  0  0  0  0  0  0  0
   10.1162  -14.7705    0.0000 C   0  0  0  0  0  0  0  0  0  0  0  0
    9.4018  -13.5330    0.0000 C   0  0  0  0  0  0  0  0  0  0  0  0
    7.2584   -8.9955    0.0000 O   0  0  0  0  0  0  0  0  0  0  0  0
    8.6873   -9.8205    0.0000 N   0  0  0  0  0  0  0  0  0  0  0  0
    7.9728  -10.2330    0.0000 C   0  0  0  0  0  0  0  0  0  0  0  0
    7.9728  -11.0580    0.0000 O   0  0  0  0  0  0  0  0  0  0  0  0
    7.2583   -9.8204    0.0000 O   0  0  0  0  0  0  0  0  0  0  0  0
    6.5439  -10.2329    0.0000 C   0  0  0  0  0  0  0  0  0  0  0  0
    7.2584   -7.3455    0.0000 O   0  0  0  0  0  0  0  0  0  0  0  0
    7.2584   -6.5205    0.0000 C   0  0  0  0  0  0  0  0  0  0  0  0
    6.5439   -6.1080    0.0000 O   0  0  0  0  0  0  0  0  0  0  0  0
    7.9729   -6.1079    0.0000 C   0  0  0  0  0  0  0  0  0  0  0  0
    6.5440   -5.2829    0.0000 C   0  0  0  0  0  0  0  0  0  0  0  0
    7.9729   -5.2830    0.0000 C   0  0  0  0  0  0  0  0  0  0  0  0
    7.2584   -4.8705    0.0000 C   0  0  0  0  0  0  0  0  0  0  0  0
    5.8295   -4.8704    0.0000 C   0  0  0  0  0  0  0  0  0  0  0  0
    7.2584   -4.0455    0.0000 O   0  0  0  0  0  0  0  0  0  0  0  0
    8.6874   -4.8705    0.0000 O   0  0  0  0  0  0  0  0  0  0  0  0
    8.6874   -4.0455    0.0000 C   0  0  0  0  0  0  0  0  0  0  0  0
    9.4018   -3.6330    0.0000 C   0  0  0  0  0  0  0  0  0  0  0  0
    7.9729   -3.6330    0.0000 O   0  0  0  0  0  0  0  0  0  0  0  0
   10.8308   -2.8080    0.0000 C   0  0  0  0  0  0  0  0  0  0  0  0
   10.8308   -3.6330    0.0000 C   0  0  0  0  0  0  0  0  0  0  0  0
   10.1163   -2.3955    0.0000 C   0  0  0  0  0  0  0  0  0  0  0  0
   10.1163   -4.0455    0.0000 C   0  0  0  0  0  0  0  0  0  0  0  0
    9.4018   -2.8080    0.0000 C   0  0  0  0  0  0  0  0  0  0  0  0
    8.6874   -2.3955    0.0000 N   0  0  0  0  0  0  0  0  0  0  0  0
    8.6874   -1.5705    0.0000 C   0  0  0  0  0  0  0  0  0  0  0  0
    7.9729   -1.1580    0.0000 C   0  0  0  0  0  0  0  0  0  0  0  0
    7.9729   -0.3330    0.0000 C   0  0  0  0  0  0  0  0  0  0  0  0
    9.4018   -1.1580    0.0000 O   0  0  0  0  0  0  0  0  0  0  0  0
    7.2584   -1.5705    0.0000 O   0  0  0  0  0  0  0  0  0  0  0  0
    6.5440   -1.1580    0.0000 C   0  0  0  0  0  0  0  0  0  0  0  0
   11.5453   -2.3955    0.0000 O   0  0  0  0  0  0  0  0  0  0  0  0
   11.5453   -4.0455    0.0000 O   0  0  0  0  0  0  0  0  0  0  0  0
   12.2597   -2.8080    0.0000 C   0  0  0  0  0  0  0  0  0  0  0  0
   12.2598   -3.6330    0.0000 C   0  0  0  0  0  0  0  0  0  0  0  0
    8.9457   -6.6298    0.0000 C   0  0  0  0  0  0  0  0  0  0  0  0
    8.2898   -6.6298    0.0000 O   0  0  0  0  0  0  0  0  0  0  0  0
    9.2141   -5.7948    0.0000 C   0  0  0  0  0  0  0  0  0  0  0  0
    9.5124   -4.9102    0.0000 C   0  0  0  0  0  0  0  0  0  0  0  0
   10.6356   -5.1090    0.0000 C   0  0  0  0  0  0  0  0  0  0  0  0
   10.5063   -6.1428    0.0000 C   0  0  0  0  0  0  0  0  0  0  0  0
   10.3871   -7.0274    0.0000 C   0  0  0  0  0  0  0  0  0  0  0  0
   10.1163   -9.8205    0.0000 H   0  0  0  0  0  0  0  0  0  0  0  0
  2  1  1  0  0  0  0
  3  1  1  0  0  0  0
  4  2  2  0  0  0  0
  5  3  1  0  0  0  0
  6  4  1  0  0  0  0
  6  5  1  0  0  0  0
  1  7  2  0  0  0  0
  7  8  1  0  0  0  0
  8  9  1  0  0  0  0
  9 10  1  0  0  0  0
 10 11  1  0  0  0  0
 11 12  1  0  0  0  0
  2 13  1  0  0  0  0
 13 14  1  0  0  0  0
 15 14  1  6  0  0  0
 17 16  1  0  0  0  0
 18 16  1  0  0  0  0
 19 17  1  0  0  0  0
 15 18  1  0  0  0  0
 20 19  1  0  0  0  0
 20 15  1  0  0  0  0
 16 21  1  6  0  0  0
 17 22  1  1  0  0  0
 19 23  1  6  0  0  0
 20 24  1  1  0  0  0
 22 25  1  0  0  0  0
 26 25  1  6  0  0  0
 28 27  1  0  0  0  0
 29 27  1  0  0  0  0
 30 28  1  0  0  0  0
 26 29  1  0  0  0  0
 31 30  1  0  0  0  0
 31 26  1  0  0  0  0
 27 32  1  6  0  0  0
 28 33  1  1  0  0  0
 33 34  1  0  0  0  0
 30 35  1  1  0  0  0
 36 24  1  1  0  0  0
 38 37  1  0  0  0  0
 36 37  1  0  0  0  0
 39 38  1  0  0  0  0
 40 36  1  0  0  0  0
 41 39  1  0  0  0  0
 41 40  1  0  0  0  0
 38 42  1  6  0  0  0
 42 43  1  0  0  0  0
 39 44  1  1  0  0  0
 44 45  1  0  0  0  0
 45 46  1  0  0  0  0
 45 47  1  0  0  0  0
  6 48  2  0  0  0  0
  4 49  1  0  0  0  0
 49 50  1  0  0  0  0
 50 51  2  0  0  0  0
 50 52  1  0  0  0  0
 52 53  1  0  0  0  0
  5 54  1  1  0  0  0
 56 55  1  0  0  0  0
 57 55  1  0  0  0  0
 58 56  1  0  0  0  0
 59 57  1  0  0  0  0
 60 58  1  0  0  0  0
 60 59  1  0  0  0  0
 55 54  1  6  0  0  0
 58 61  1  1  0  0  0
 60 62  1  1  0  0  0
 59 63  1  1  0  0  0
 63 64  1  0  0  0  0
 64 65  1  0  0  0  0
 64 66  2  0  0  0  0
 68 67  1  0  0  0  0
 69 67  2  0  0  0  0
 70 68  2  0  0  0  0
 71 69  1  0  0  0  0
 65 70  1  0  0  0  0
 65 71  2  0  0  0  0
 71 72  1  0  0  0  0
 72 73  1  0  0  0  0
 73 74  1  0  0  0  0
 74 75  2  0  0  0  0
 73 76  2  0  0  0  0
 74 77  1  0  0  0  0
 77 78  1  0  0  0  0
 67 79  1  0  0  0  0
 68 80  1  0  0  0  0
 79 81  1  0  0  0  0
 80 82  1  0  0  0  0
  3 83  1  0  0  0  0
  3 84  1  6  0  0  0
 85 83  3  0  0  0  0
 85 86  1  0  0  0  0
 86 87  2  0  0  0  0
 87 88  1  0  0  0  0
 88 89  3  0  0  0  0
 89 13  1  0  0  0  0
 13 90  1  6  0  0  0
M  END
