[NO NAME]
  CHEMW2  0808111108082D                              
Created with ChemWriter - http://chemwriter.com
 72 75  0  0  1  0            999 V2000
   22.2926  -13.2625    0.0000 N   0  0  0  0  0  0  0  0  0  0  0  0
   21.2059  -12.6829    0.0000 C   0  0  0  0  0  0  0  0  0  0  0  0
   20.0467  -13.2625    0.0000 C   0  0  0  0  0  0  0  0  0  0  0  0
   18.8875  -12.6829    0.0000 N   0  0  0  0  0  0  0  0  0  0  0  0
   17.7283  -13.2625    0.0000 C   0  0  0  0  0  0  0  0  0  0  0  0
   16.5691  -12.6829    0.0000 C   0  0  0  0  0  0  0  0  0  0  0  0
   15.4099  -13.2625    0.0000 N   0  0  0  0  0  0  0  0  0  0  0  0
   14.3232  -12.6829    0.0000 C   0  0  0  0  0  0  0  0  0  0  0  0
   13.1640  -13.2625    0.0000 O   0  0  0  0  0  0  0  0  0  0  0  0
   21.2059  -11.3064    0.0000 O   0  0  0  0  0  0  0  0  0  0  0  0
   17.7283  -14.6391    0.0000 O   0  0  0  0  0  0  0  0  0  0  0  0
   16.5691  -11.3064    0.0000 C   0  0  0  0  0  0  0  0  0  0  0  0
   17.7283  -10.6543    0.0000 C   0  0  0  0  0  0  0  0  0  0  0  0
   17.7283   -9.2778    0.0000 C   0  0  0  0  0  0  0  0  0  0  0  0
   18.8151   -8.6257    0.0000 C   0  0  0  0  0  0  0  0  0  0  0  0
   14.3232  -11.3064    0.0000 C   0  0  0  0  0  0  0  0  0  0  0  0
   15.3375  -10.5094    0.0000 C   0  0  0  0  0  0  0  0  0  0  0  0
   13.2364  -10.5094    0.0000 N   0  0  0  0  0  0  0  0  0  0  0  0
   14.9752   -9.2778    0.0000 C   0  0  0  0  0  0  0  0  0  0  0  0
   13.5987   -9.2778    0.0000 C   0  0  0  0  0  0  0  0  0  0  0  0
   12.0772  -11.1615    0.0000 C   0  0  0  0  0  0  0  0  0  0  0  0
   10.9180  -10.5094    0.0000 C   0  0  0  0  0  0  0  0  0  0  0  0
    9.7588  -11.1615    0.0000 N   0  0  0  0  0  0  0  0  0  0  0  0
    8.5996  -10.5094    0.0000 C   0  0  0  0  0  0  0  0  0  0  0  0
    7.5129  -11.1615    0.0000 C   0  0  0  0  0  0  0  0  0  0  0  0
    6.3537  -10.5094    0.0000 N   0  0  0  0  0  0  0  0  0  0  0  0
   12.0772  -12.5380    0.0000 O   0  0  0  0  0  0  0  0  0  0  0  0
   10.9180   -9.2053    0.0000 C   0  0  0  0  0  0  0  0  0  0  0  0
   12.0772   -8.5533    0.0000 S   0  0  0  0  0  0  0  0  0  0  0  0
   12.0772   -7.2492    0.0000 S   0  0  0  0  0  0  0  0  0  0  0  0
    8.5996   -9.2053    0.0000 O   0  0  0  0  0  0  0  0  0  0  0  0
    7.5129  -12.5380    0.0000 C   0  0  0  0  0  0  0  0  0  0  0  0
    6.3537  -13.1901    0.0000 C   0  0  0  0  0  0  0  0  0  0  0  0
    6.3537  -14.4942    0.0000 O   0  0  0  0  0  0  0  0  0  0  0  0
    5.1945  -12.5380    0.0000 N   0  0  0  0  0  0  0  0  0  0  0  0
    6.3537   -9.2053    0.0000 C   0  0  0  0  0  0  0  0  0  0  0  0
    5.1945   -8.5533    0.0000 C   0  0  0  0  0  0  0  0  0  0  0  0
    7.5129   -8.5533    0.0000 O   0  0  0  0  0  0  0  0  0  0  0  0
    4.0353   -9.2053    0.0000 C   0  0  0  0  0  0  0  0  0  0  0  0
    3.9906  -10.5346    0.0000 C   0  0  0  0  0  0  0  0  0  0  0  0
    2.8314  -11.1866    0.0000 C   0  0  0  0  0  0  0  0  0  0  0  0
    1.6722  -10.5346    0.0000 N   0  0  0  0  0  0  0  0  0  0  0  0
    2.8314  -12.5632    0.0000 O   0  0  0  0  0  0  0  0  0  0  0  0
    5.1945   -7.2492    0.0000 N   0  0  0  0  0  0  0  0  0  0  0  0
    4.0353   -5.2206    0.0000 C   0  0  0  0  0  0  0  0  0  0  0  0
    4.0353   -6.5971    0.0000 C   0  0  0  0  0  0  0  0  0  0  0  0
    5.1945   -4.5686    0.0000 C   0  0  0  0  0  0  0  0  0  0  0  0
    6.3537   -5.2206    0.0000 C   0  0  0  0  0  0  0  0  0  0  0  0
    6.3537   -6.5971    0.0000 C   0  0  0  0  0  0  0  0  0  0  0  0
    1.7169   -5.2206    0.0000 C   0  0  0  0  0  0  0  0  0  0  0  0
    1.7169   -6.5971    0.0000 C   0  0  0  0  0  0  0  0  0  0  0  0
    2.8761   -4.5686    0.0000 C   0  0  0  0  0  0  0  0  0  0  0  0
    2.8761   -7.2492    0.0000 C   0  0  0  0  0  0  0  0  0  0  0  0
   10.9180   -5.2206    0.0000 N   0  0  0  0  0  0  0  0  0  0  0  0
   12.0772   -4.5686    0.0000 C   0  0  0  0  0  0  0  0  0  0  0  0
   13.2364   -5.2206    0.0000 C   0  0  0  0  0  0  0  0  0  0  0  0
   13.2364   -6.5247    0.0000 C   0  0  0  0  0  0  0  0  0  0  0  0
    8.6721   -5.2206    0.0000 C   0  0  0  0  0  0  0  0  0  0  0  0
    8.6721   -6.5247    0.0000 O   0  0  0  0  0  0  0  0  0  0  0  0
    9.7588   -4.5686    0.0000 C   0  0  0  0  0  0  0  0  0  0  0  0
    7.5129   -4.5686    0.0000 N   0  0  0  0  0  0  0  0  0  0  0  0
    7.5129   -7.2492    0.0000 O   0  0  0  0  0  0  0  0  0  0  0  0
    9.7588   -3.1920    0.0000 C   0  0  0  0  0  0  0  0  0  0  0  0
    7.5129   -3.1920    0.0000 C   0  0  0  0  0  0  0  0  0  0  0  0
    8.6721   -2.5400    0.0000 C   0  0  0  0  0  0  0  0  0  0  0  0
    6.3537   -2.5400    0.0000 C   0  0  0  0  0  0  0  0  0  0  0  0
    6.3537   -1.2359    0.0000 C   0  0  0  0  0  0  0  0  0  0  0  0
    8.6721   -1.2359    0.0000 C   0  0  0  0  0  0  0  0  0  0  0  0
    7.5129   -0.5838    0.0000 C   0  0  0  0  0  0  0  0  0  0  0  0
   14.3232   -4.5686    0.0000 N   0  0  0  0  0  0  0  0  0  0  0  0
   12.0772   -3.1920    0.0000 O   0  0  0  0  0  0  0  0  0  0  0  0
   18.8151   -7.3216    0.0000 N   0  0  0  0  0  0  0  0  0  0  0  0
  2  1  1  0  0  0  0
  3  2  1  0  0  0  0
 10  2  2  0  0  0  0
  4  3  1  0  0  0  0
  5  4  1  0  0  0  0
  6  5  1  0  0  0  0
 11  5  2  0  0  0  0
  7  6  1  0  0  0  0
  6 12  1  1  0  0  0
  8  7  1  0  0  0  0
  9  8  2  0  0  0  0
 16  8  1  1  0  0  0
 13 12  1  0  0  0  0
 14 13  1  0  0  0  0
 15 14  1  0  0  0  0
 72 15  1  0  0  0  0
 17 16  1  0  0  0  0
 18 16  1  0  0  0  0
 19 17  1  0  0  0  0
 20 18  1  0  0  0  0
 21 18  1  0  0  0  0
 20 19  1  0  0  0  0
 22 21  1  1  0  0  0
 27 21  2  0  0  0  0
 23 22  1  0  0  0  0
 28 22  1  0  0  0  0
 24 23  1  0  0  0  0
 25 24  1  0  0  0  0
 31 24  2  0  0  0  0
 26 25  1  0  0  0  0
 25 32  1  6  0  0  0
 36 26  1  0  0  0  0
 29 28  1  0  0  0  0
 30 29  1  0  0  0  0
 57 30  1  0  0  0  0
 33 32  1  0  0  0  0
 34 33  2  0  0  0  0
 35 33  1  0  0  0  0
 37 36  1  0  0  0  0
 38 36  2  0  0  0  0
 37 39  1  6  0  0  0
 44 37  1  0  0  0  0
 40 39  1  0  0  0  0
 41 40  1  0  0  0  0
 42 41  1  0  0  0  0
 43 41  2  0  0  0  0
 49 44  1  0  0  0  0
 47 45  1  0  0  0  0
 52 45  1  0  0  0  0
 46 45  2  0  0  0  0
 53 46  1  0  0  0  0
 48 47  1  6  0  0  0
 61 48  1  0  0  0  0
 49 48  1  0  0  0  0
 62 49  2  0  0  0  0
 51 50  1  0  0  0  0
 52 50  2  0  0  0  0
 53 51  2  0  0  0  0
 55 54  1  0  0  0  0
 60 54  1  0  0  0  0
 56 55  1  0  0  0  0
 71 55  2  0  0  0  0
 57 56  1  0  0  0  0
 56 70  1  1  0  0  0
 59 58  2  0  0  0  0
 60 58  1  0  0  0  0
 61 58  1  0  0  0  0
 60 63  1  6  0  0  0
 65 63  1  0  0  0  0
 66 64  2  0  0  0  0
 65 64  1  0  0  0  0
 68 65  2  0  0  0  0
 67 66  1  0  0  0  0
 69 67  2  0  0  0  0
 69 68  1  0  0  0  0
M  END
