
CDL SDfile Writer. v.200000

 23 25  0  0  0  0  0  0  0  0999 V2000
    0.2250   -1.2792    0.0000 C   0  0  0  0  0  0
   -0.2625   -0.6125    0.0000 N   0  0  3  0  0  0
   -0.1208   -2.0292    0.0000 C   0  0  0  0  0  0
    0.7792    0.4250    0.0000 C   0  0  0  0  0  0
   -0.0083    0.1708    0.0000 C   0  0  1  0  0  0
    1.3917   -0.1292    0.0000 N   0  0  0  0  0  0
    1.0417   -1.1917    0.0000 O   0  0  0  0  0  0
    0.3667   -2.6917    0.0000 C   0  0  0  0  0  0
   -0.6750    0.6583    0.0000 C   0  0  0  0  0  0
    0.9542    1.2333    0.0000 O   0  0  0  0  0  0
   -1.3375    0.1708    0.0000 C   0  0  0  0  0  0
   -1.0875   -0.6125    0.0000 C   0  0  0  0  0  0
    1.1917   -2.6042    0.0000 F   0  0  0  0  0  0
   -0.9458   -2.1167    0.0000 C   0  0  0  0  0  0
    2.1792    0.1250    0.0000 C   0  0  3  0  0  0
    0.0417   -3.4542    0.0000 C   0  0  0  0  0  0
    2.3500    0.9333    0.0000 C   0  0  0  0  0  0
    2.7917   -0.4292    0.0000 C   0  0  0  0  0  0
   -1.2833   -2.8792    0.0000 C   0  0  0  0  0  0
   -0.7833   -3.5542    0.0000 C   0  0  0  0  0  0
    3.1292    1.1875    0.0000 C   0  0  0  0  0  0
    3.5750   -0.1750    0.0000 C   0  0  0  0  0  0
    3.7500    0.6333    0.0000 C   0  0  0  0  0  0
  2  1  1  0  0  0
  3  1  1  0  0  0
  5  4  1  0  0  0
  5  2  1  0  0  0
  6  4  1  0  0  0
  7  1  2  0  0  0
  8  3  1  0  0  0
  9  5  1  0  0  0
 10  4  2  0  0  0
 11 12  1  0  0  0
 12  2  1  0  0  0
 13  8  1  0  0  0
 14  3  2  0  0  0
 15  6  1  0  0  0
 16  8  2  0  0  0
 17 15  1  0  0  0
 18 15  1  0  0  0
 19 14  1  0  0  0
 20 19  2  0  0  0
 21 17  1  0  0  0
 22 18  1  0  0  0
 23 22  1  0  0  0
 11  9  2  0  0  0
 16 20  1  0  0  0
 23 21  1  0  0  0
M  END
>  <IDNUMBER>
AAM 10376335                                                         

>  <Weight>
1.256000000000000e+002    

$$$$
