
CDL SDfile Writer. v.200000

 24 26  0  0  0  0  0  0  0  0999 V2000
    0.2167   -1.2792    0.0000 S   0  0  3  0  0  0
   -0.2625   -0.6125    0.0000 N   0  0  3  0  0  0
   -0.0083    0.1708    0.0000 C   0  0  1  0  0  0
    0.7792    0.4250    0.0000 C   0  0  0  0  0  0
    0.7042   -1.9542    0.0000 C   0  0  0  0  0  0
    1.3917   -0.1292    0.0000 N   0  0  0  0  0  0
    0.8792   -0.7917    0.0000 O   0  0  0  0  0  0
   -0.4583   -1.7625    0.0000 O   0  0  0  0  0  0
   -0.6750    0.6583    0.0000 C   0  0  0  0  0  0
    0.9542    1.2333    0.0000 O   0  0  0  0  0  0
   -1.3375    0.1708    0.0000 C   0  0  0  0  0  0
   -1.0875   -0.6125    0.0000 C   0  0  0  0  0  0
    0.3625   -2.7042    0.0000 C   0  0  0  0  0  0
    1.5167   -1.8667    0.0000 C   0  0  0  0  0  0
    1.6625   -3.2875    0.0000 C   0  0  0  0  0  0
    2.1792    0.1250    0.0000 C   0  0  3  0  0  0
    2.0000   -2.5292    0.0000 C   0  0  0  0  0  0
    0.8417   -3.3667    0.0000 C   0  0  0  0  0  0
    2.1500   -3.9542    0.0000 F   0  0  0  0  0  0
    2.7917   -0.4292    0.0000 C   0  0  0  0  0  0
    2.3500    0.9333    0.0000 C   0  0  0  0  0  0
    3.5750   -0.1750    0.0000 C   0  0  0  0  0  0
    3.1292    1.1875    0.0000 C   0  0  0  0  0  0
    3.7417    0.6333    0.0000 C   0  0  0  0  0  0
  2  1  1  0  0  0
  3  2  1  0  0  0
  3  4  1  0  0  0
  5  1  1  0  0  0
  6  4  1  0  0  0
  7  1  2  0  0  0
  8  1  2  0  0  0
  9  3  1  0  0  0
 10  4  2  0  0  0
 11 12  1  0  0  0
 12  2  1  0  0  0
 13  5  2  0  0  0
 14  5  1  0  0  0
 15 17  1  0  0  0
 16  6  1  0  0  0
 17 14  2  0  0  0
 18 13  1  0  0  0
 19 15  1  0  0  0
 20 16  1  0  0  0
 21 16  1  0  0  0
 22 20  1  0  0  0
 23 21  1  0  0  0
 24 23  1  0  0  0
 15 18  2  0  0  0
 11  9  2  0  0  0
 22 24  1  0  0  0
M  END
>  <IDNUMBER>
AAM 10376368                                                         

>  <Weight>
2.164500000000000e+002    

$$$$
