
CDL SDfile Writer. v.200000

 25 27  0  0  0  0  0  0  0  0999 V2000
    0.2250   -1.2792    0.0000 C   0  0  0  0  0  0
   -0.2625   -0.6125    0.0000 N   0  0  3  0  0  0
   -0.1208   -2.0292    0.0000 C   0  0  0  0  0  0
   -0.0083    0.1708    0.0000 C   0  0  1  0  0  0
    0.7792    0.4250    0.0000 C   0  0  0  0  0  0
    1.0417   -1.1917    0.0000 O   0  0  0  0  0  0
    0.3667   -2.6917    0.0000 C   0  0  0  0  0  0
   -0.6750    0.6583    0.0000 C   0  0  0  0  0  0
   -1.3375    0.1708    0.0000 C   0  0  0  0  0  0
    0.9542    1.2333    0.0000 O   0  0  0  0  0  0
   -1.0875   -0.6125    0.0000 C   0  0  0  0  0  0
    1.3917   -0.1292    0.0000 N   0  0  0  0  0  0
    1.1917   -2.6042    0.0000 F   0  0  0  0  0  0
   -0.9458   -2.1167    0.0000 C   0  0  0  0  0  0
    2.1792    0.1250    0.0000 C   0  0  0  0  0  0
    3.5792   -0.1667    0.0000 C   0  0  0  0  0  0
    0.0417   -3.4542    0.0000 C   0  0  0  0  0  0
    2.7917   -0.4292    0.0000 C   0  0  0  0  0  0
    4.2000   -0.7250    0.0000 C   0  0  0  0  0  0
    3.7542    0.6375    0.0000 C   0  0  0  0  0  0
   -1.2833   -2.8792    0.0000 C   0  0  0  0  0  0
   -0.7833   -3.5542    0.0000 C   0  0  0  0  0  0
    4.5417    0.8958    0.0000 C   0  0  0  0  0  0
    4.9792   -0.4667    0.0000 C   0  0  0  0  0  0
    5.1542    0.3375    0.0000 C   0  0  0  0  0  0
  2  1  1  0  0  0
  3  1  1  0  0  0
  4  2  1  0  0  0
  4  5  1  0  0  0
  6  1  2  0  0  0
  7  3  1  0  0  0
  8  4  1  0  0  0
  9 11  1  0  0  0
 10  5  2  0  0  0
 11  2  1  0  0  0
 12  5  1  0  0  0
 13  7  1  0  0  0
 14  3  2  0  0  0
 15 12  1  0  0  0
 16 18  1  0  0  0
 17  7  2  0  0  0
 18 15  1  0  0  0
 19 16  2  0  0  0
 20 16  1  0  0  0
 21 14  1  0  0  0
 22 21  2  0  0  0
 23 20  2  0  0  0
 24 19  1  0  0  0
 25 23  1  0  0  0
  9  8  2  0  0  0
 17 22  1  0  0  0
 25 24  2  0  0  0
M  END
>  <IDNUMBER>
AAM 10376530

>  <Weight>
3.850000000000000e+001

$$$$
