
CDL SDfile Writer. v.200000

 29 32  0  0  0  0            999 V2000
   -0.8484   -0.6703    0.0000 N   0  0  0  0  0  0  0  0  0  0  0  0
   -0.8484   -2.3203    0.0000 S   0  0  0  0  0  0  0  0  0  0  0  0
   -0.1340   -1.0828    0.0000 C   0  0  0  0  0  0  0  0  0  0  0  0
   -1.5629   -1.0828    0.0000 C   0  0  0  0  0  0  0  0  0  0  0  0
   -1.5629   -1.9078    0.0000 C   0  0  0  0  0  0  0  0  0  0  0  0
   -0.1340   -1.9078    0.0000 C   0  0  0  0  0  0  0  0  0  0  0  0
    0.5805   -0.6703    0.0000 C   0  0  0  0  0  0  0  0  0  0  0  0
   -2.2774   -0.6703    0.0000 C   0  0  0  0  0  0  0  0  0  0  0  0
   -2.2774   -2.3203    0.0000 C   0  0  0  0  0  0  0  0  0  0  0  0
    0.5805   -2.3203    0.0000 C   0  0  0  0  0  0  0  0  0  0  0  0
   -2.9918   -1.9078    0.0000 C   0  0  0  0  0  0  0  0  0  0  0  0
    1.2950   -1.9078    0.0000 C   0  0  0  0  0  0  0  0  0  0  0  0
   -0.8484    0.1547    0.0000 C   0  0  0  0  0  0  0  0  0  0  0  0
   -0.1340    0.5672    0.0000 C   0  0  0  0  0  0  0  0  0  0  0  0
   -0.1340    1.3922    0.0000 C   0  0  0  0  0  0  0  0  0  0  0  0
    0.5805    1.8047    0.0000 N   0  0  0  0  0  0  0  0  0  0  0  0
    2.0094    2.6297    0.0000 N   0  0  0  0  0  0  0  0  0  0  0  0
    2.0094    1.8047    0.0000 C   0  0  0  0  0  0  0  0  0  0  0  0
    0.5805    2.6297    0.0000 C   0  0  0  0  0  0  0  0  0  0  0  0
    1.2950    3.0422    0.0000 C   0  0  0  0  0  0  0  0  0  0  0  0
    1.2950    1.3922    0.0000 C   0  0  0  0  0  0  0  0  0  0  0  0
    2.7239    3.0422    0.0000 C   0  0  0  0  0  0  0  0  0  0  0  0
    3.4384    2.6297    0.0000 C   0  0  0  0  0  0  0  0  0  0  0  0
    4.1529    3.0422    0.0000 O   0  0  0  0  0  0  0  0  0  0  0  0
   -2.9918   -1.0828    0.0000 C   0  0  0  0  0  0  0  0  0  0  0  0
    1.2950   -1.0828    0.0000 C   0  0  0  0  0  0  0  0  0  0  0  0
    2.7239   -1.0828    0.0000 C   0  0  0  0  0  0  0  0  0  0  0  0
    2.0094   -0.6703    0.0000 C   0  0  0  0  0  0  0  0  0  0  0  0
    2.0094    0.1547    0.0000 O   0  0  0  0  0  0  0  0  0  0  0  0
  3  1  1  0  0  0  0
  4  1  1  0  0  0  0
 13  1  1  0  0  0  0
  5  2  1  0  0  0  0
  6  2  1  0  0  0  0
  6  3  1  0  0  0  0
  7  3  2  0  0  0  0
  5  4  2  0  0  0  0
  8  4  1  0  0  0  0
  9  5  1  0  0  0  0
 10  6  2  0  0  0  0
 26  7  1  0  0  0  0
 25  8  2  0  0  0  0
 11  9  2  0  0  0  0
 12 10  1  0  0  0  0
 12 26  2  0  0  0  0
 25 11  1  0  0  0  0
 14 13  1  0  0  0  0
 15 14  1  0  0  0  0
 16 15  1  0  0  0  0
 19 16  1  0  0  0  0
 21 16  1  0  0  0  0
 18 17  1  0  0  0  0
 20 17  1  0  0  0  0
 22 17  1  0  0  0  0
 21 18  1  0  0  0  0
 20 19  1  0  0  0  0
 23 22  1  0  0  0  0
 24 23  1  0  0  0  0
 26 28  1  0  0  0  0
 28 27  1  0  0  0  0
 28 29  2  0  0  0  0
M  END
>  <IDNUMBER>
AAM 10376335                                                         

>  <Weight>
1.256000000000000e+002    

$$$$