
CDL SDfile Writer. v.200000

 76 79  0  0  1  0            999 V2000
   28.8617  -13.7158    0.0000 N   0  0  0  0  0  0  0  0  0  0  0  0
   29.1223  -14.4974    0.0000 C   0  0  0  0  0  0  0  0  0  0  0  0
   28.8617  -12.5422    0.0000 C   0  0  0  0  0  0  0  0  0  0  0  0
   28.0367  -13.7157    0.0000 C   0  0  0  0  0  0  0  0  0  0  0  0
   29.8170  -14.9316    0.0000 C   0  0  0  0  0  0  0  0  0  0  0  0
   28.4709  -15.0184    0.0000 C   0  0  0  0  0  0  0  0  0  0  0  0
   29.5565  -12.1080    0.0000 C   0  0  0  0  0  0  0  0  0  0  0  0
   28.1236  -12.1080    0.0000 O   0  0  0  0  0  0  0  0  0  0  0  0
   27.7762  -14.5408    0.0000 C   0  0  0  0  0  0  0  0  0  0  0  0
   30.5117  -14.4974    0.0000 N   0  0  0  0  0  0  0  0  0  0  0  0
   29.8170  -15.7132    0.0000 O   0  0  0  0  0  0  0  0  0  0  0  0
   29.5565  -11.2830    0.0000 N   0  0  0  0  0  0  0  0  0  0  0  0
   30.2512  -12.5422    0.0000 C   0  0  0  0  0  0  0  0  0  0  0  0
   31.2500  -14.9316    0.0000 C   0  0  0  0  0  0  0  0  0  0  0  0
   30.2512  -10.8922    0.0000 C   0  0  0  0  0  0  0  0  0  0  0  0
   30.9894  -12.1080    0.0000 S   0  0  0  0  0  0  0  0  0  0  0  0
   31.2500  -15.9309    0.0000 C   0  0  0  0  0  0  0  0  0  0  0  0
   31.9446  -14.4974    0.0000 C   0  0  0  0  0  0  0  0  0  0  0  0
   30.2512  -10.0672    0.0000 C   0  0  0  0  0  0  0  0  0  0  0  0
   30.9894  -11.2830    0.0000 O   0  0  0  0  0  0  0  0  0  0  0  0
   31.6841  -12.5422    0.0000 S   0  0  0  0  0  0  0  0  0  0  0  0
   31.9446  -16.3652    0.0000 N   0  0  0  0  0  0  0  0  0  0  0  0
   30.5117  -16.3652    0.0000 O   0  0  0  0  0  0  0  0  0  0  0  0
   32.6394  -14.9316    0.0000 C   0  0  0  0  0  0  0  0  0  0  0  0
   29.5565   -9.6330    0.0000 N   0  0  0  0  0  0  0  0  0  0  0  0
   30.9894   -9.6330    0.0000 C   0  0  0  0  0  0  0  0  0  0  0  0
   32.3789  -12.1080    0.0000 C   0  0  0  0  0  0  0  0  0  0  0  0
   32.6394  -15.9309    0.0000 C   0  0  0  0  0  0  0  0  0  0  0  0
   33.3775  -14.4974    0.0000 C   0  0  0  0  0  0  0  0  0  0  0  0
   29.5565   -8.5465    0.0000 C   0  0  0  0  0  0  0  0  0  0  0  0
   31.6841  -10.0672    0.0000 C   0  0  0  0  0  0  0  0  0  0  0  0
   33.1170  -12.5422    0.0000 C   0  0  0  0  0  0  0  0  0  0  0  0
   34.0723  -14.9316    0.0000 N   0  0  0  0  0  0  0  0  0  0  0  0
   30.8157   -7.8511    0.0000 C   0  0  0  0  0  0  0  0  0  0  0  0
   28.8617   -8.1123    0.0000 O   0  0  0  0  0  0  0  0  0  0  0  0
   32.3789   -9.6330    0.0000 N   0  0  0  0  0  0  0  0  0  0  0  0
   31.6841  -10.8922    0.0000 O   0  0  0  0  0  0  0  0  0  0  0  0
   33.8118  -12.1080    0.0000 C   0  0  0  0  0  0  0  0  0  0  0  0
   33.1170  -13.3238    0.0000 N   0  0  0  0  0  0  0  0  0  0  0  0
   31.9446   -8.5465    0.0000 N   0  0  0  0  0  0  0  0  0  0  0  0
   30.8157   -6.8089    0.0000 C   0  0  0  0  0  0  0  0  0  0  0  0
   34.5065  -12.5422    0.0000 N   0  0  0  0  0  0  0  0  0  0  0  0
   33.8118  -11.2830    0.0000 O   0  0  0  0  0  0  0  0  0  0  0  0
   33.1170   -7.8511    0.0000 C   0  0  0  0  0  0  0  0  0  0  0  0
   30.1209   -6.3748    0.0000 C   0  0  0  0  0  0  0  0  0  0  0  0
   35.2446  -12.1080    0.0000 C   0  0  0  0  0  0  0  0  0  0  0  0
   34.5500   -8.5465    0.0000 C   0  0  0  0  0  0  0  0  0  0  0  0
   33.1170   -7.0261    0.0000 O   0  0  0  0  0  0  0  0  0  0  0  0
   29.3828   -6.7656    0.0000 C   0  0  0  0  0  0  0  0  0  0  0  0
   35.9394  -12.5422    0.0000 C   0  0  0  0  0  0  0  0  0  0  0  0
   35.2446  -11.2830    0.0000 C   0  0  0  0  0  0  0  0  0  0  0  0
   35.3315   -7.8945    0.0000 C   0  0  0  0  0  0  0  0  0  0  0  0
   34.5500  -10.6308    0.0000 N   0  0  0  0  0  0  0  0  0  0  0  0
   28.6880   -6.3748    0.0000 N   0  0  0  0  0  0  0  0  0  0  0  0
   29.3828   -7.5906    0.0000 O   0  0  0  0  0  0  0  0  0  0  0  0
   36.6342  -12.1080    0.0000 C   0  0  0  0  0  0  0  0  0  0  0  0
   35.9394  -10.8922    0.0000 O   0  0  0  0  0  0  0  0  0  0  0  0
   36.0697   -8.2853    0.0000 C   0  0  0  0  0  0  0  0  0  0  0  0
   37.3289  -12.4988    0.0000 C   0  0  0  0  0  0  0  0  0  0  0  0
   36.6342  -11.2830    0.0000 C   0  0  0  0  0  0  0  0  0  0  0  0
   36.0697   -9.1103    0.0000 C   0  0  0  0  0  0  0  0  0  0  0  0
   36.7644   -7.8511    0.0000 C   0  0  0  0  0  0  0  0  0  0  0  0
   38.0670  -12.1080    0.0000 C   0  0  0  0  0  0  0  0  0  0  0  0
   37.3289  -10.8922    0.0000 C   0  0  0  0  0  0  0  0  0  0  0  0
   36.7644   -9.5011    0.0000 C   0  0  0  0  0  0  0  0  0  0  0  0
   37.4592   -8.2853    0.0000 C   0  0  0  0  0  0  0  0  0  0  0  0
   38.0670  -11.2830    0.0000 C   0  0  0  0  0  0  0  0  0  0  0  0
   37.4592   -9.1103    0.0000 C   0  0  0  0  0  0  0  0  0  0  0  0
   38.7618  -10.8922    0.0000 O   0  0  0  0  0  0  0  0  0  0  0  0
   34.8105  -14.4539    0.0000 C   0  0  0  0  0  0  0  0  0  0  0  0
   35.5920  -14.9316    0.0000 N   0  0  0  0  0  0  0  0  0  0  0  0
   34.8105  -13.6289    0.0000 N   0  0  0  0  0  0  0  0  0  0  0  0
   33.4209  -16.4086    0.0000 C   0  0  0  0  0  0  0  0  0  0  0  0
   34.1591  -15.9744    0.0000 N   0  0  0  0  0  0  0  0  0  0  0  0
   33.4209  -17.2770    0.0000 O   0  0  0  0  0  0  0  0  0  0  0  0
   29.8266  -14.0881    0.0000 H   0  0  0  0  0  0  0  0  0  0  0  0
  2  1  1  0  0  0  0
  1  3  1  0  0  0  0
  1  4  1  0  0  0  0
  2  5  1  0  0  0  0
  2  6  1  0  0  0  0
  3  7  1  0  0  0  0
  3  8  2  0  0  0  0
  4  9  1  0  0  0  0
  5 10  1  0  0  0  0
  5 11  2  0  0  0  0
  7 12  1  0  0  0  0
  7 13  1  0  0  0  0
 14 10  1  1  0  0  0
 12 15  1  0  0  0  0
 13 16  1  0  0  0  0
 14 17  1  0  0  0  0
 14 18  1  0  0  0  0
 15 19  1  0  0  0  0
 15 20  2  0  0  0  0
 16 21  1  0  0  0  0
 17 22  1  0  0  0  0
 17 23  2  0  0  0  0
 18 24  1  0  0  0  0
 19 25  1  1  0  0  0
 19 26  1  0  0  0  0
 21 27  1  0  0  0  0
 22 28  1  0  0  0  0
 24 29  1  0  0  0  0
 25 30  1  0  0  0  0
 26 31  1  0  0  0  0
 27 32  1  0  0  0  0
 29 33  1  0  0  0  0
 30 34  1  0  0  0  0
 30 35  2  0  0  0  0
 31 36  1  0  0  0  0
 31 37  2  0  0  0  0
 32 38  1  0  0  0  0
 32 39  1  1  0  0  0
 34 40  1  6  0  0  0
 34 41  1  0  0  0  0
 38 42  1  0  0  0  0
 38 43  2  0  0  0  0
 40 44  1  0  0  0  0
 41 45  1  0  0  0  0
 46 42  1  6  0  0  0
 44 47  1  0  0  0  0
 44 48  2  0  0  0  0
 45 49  1  0  0  0  0
 46 50  1  0  0  0  0
 46 51  1  0  0  0  0
 47 52  1  0  0  0  0
 47 53  1  6  0  0  0
 49 54  1  0  0  0  0
 49 55  2  0  0  0  0
 50 56  1  0  0  0  0
 51 57  2  0  0  0  0
 52 58  1  0  0  0  0
 56 59  2  0  0  0  0
 56 60  1  0  0  0  0
 58 61  2  0  0  0  0
 58 62  1  0  0  0  0
 59 63  1  0  0  0  0
 60 64  2  0  0  0  0
 61 65  1  0  0  0  0
 62 66  2  0  0  0  0
 63 67  2  0  0  0  0
 65 68  2  0  0  0  0
 67 69  1  0  0  0  0
  6  9  1  0  0  0  0
 51 53  1  0  0  0  0
 64 67  1  0  0  0  0
 66 68  1  0  0  0  0
 33 70  1  0  0  0  0
 70 71  1  0  0  0  0
 70 72  2  0  0  0  0
 28 73  1  0  0  0  0
 73 74  1  0  0  0  0
 73 75  2  0  0  0  0
  2 76  1  1  0  0  0
M  END
>  <IDNUMBER>
AAM 10376335                                                         

>  <Weight>
1.256000000000000e+002    

$$$$
