[NO NAME]
  CHEMW2  0808111105442D                              
Created with ChemWriter - http://chemwriter.com
 26 28  0  0  0  0            999 V2000
   14.8496  -14.2540    0.0000 C   0  0  0  0  0  0  0  0  0  0  0  0
   14.8496  -12.9240    0.0000 C   0  0  0  0  0  0  0  0  0  0  0  0
   13.6978  -14.9190    0.0000 N   0  0  0  0  0  0  0  0  0  0  0  0
   16.0015  -14.9190    0.0000 C   0  0  0  0  0  0  0  0  0  0  0  0
   16.0015  -12.2590    0.0000 C   0  0  0  0  0  0  0  0  0  0  0  0
   13.6978  -12.2590    0.0000 S   0  0  0  0  0  0  0  0  0  0  0  0
   12.5460  -14.2540    0.0000 C   0  0  0  0  0  0  0  0  0  0  0  0
   17.1533  -14.2540    0.0000 C   0  0  0  0  0  0  0  0  0  0  0  0
   17.1533  -12.9240    0.0000 C   0  0  0  0  0  0  0  0  0  0  0  0
   12.5460  -12.9240    0.0000 N   0  0  0  0  0  0  0  0  0  0  0  0
   13.0328  -11.1072    0.0000 O   0  0  0  0  0  0  0  0  0  0  0  0
   14.3628  -11.1072    0.0000 O   0  0  0  0  0  0  0  0  0  0  0  0
   11.3942  -14.9190    0.0000 C   0  0  0  0  0  0  0  0  0  0  0  0
   18.3051  -14.9190    0.0000 Cl  0  0  0  0  0  0  0  0  0  0  0  0
   18.3051  -12.2590    0.0000 S   0  0  0  0  0  0  0  0  0  0  0  0
   11.3942  -16.2490    0.0000 S   0  0  0  0  0  0  0  0  0  0  0  0
   19.4569  -12.9240    0.0000 N   0  0  0  0  0  0  0  0  0  0  0  0
   17.6401  -11.1072    0.0000 O   0  0  0  0  0  0  0  0  0  0  0  0
   18.9701  -11.1072    0.0000 O   0  0  0  0  0  0  0  0  0  0  0  0
   10.2424  -16.9140    0.0000 C   0  0  0  0  0  0  0  0  0  0  0  0
   10.2424  -18.2440    0.0000 C   0  0  0  0  0  0  0  0  0  0  0  0
    9.0906  -18.9090    0.0000 C   0  0  0  0  0  0  0  0  0  0  0  0
   11.3942  -18.9090    0.0000 C   0  0  0  0  0  0  0  0  0  0  0  0
    9.0906  -20.2390    0.0000 C   0  0  0  0  0  0  0  0  0  0  0  0
   11.3942  -20.2390    0.0000 C   0  0  0  0  0  0  0  0  0  0  0  0
   10.2424  -20.9040    0.0000 C   0  0  0  0  0  0  0  0  0  0  0  0
  1  2  2  0  0  0  0
  1  3  1  0  0  0  0
  1  4  1  0  0  0  0
  2  5  1  0  0  0  0
  2  6  1  0  0  0  0
  3  7  2  0  0  0  0
  4  8  2  0  0  0  0
  5  9  2  0  0  0  0
  6 10  1  0  0  0  0
  6 11  2  0  0  0  0
  6 12  2  0  0  0  0
  7 13  1  0  0  0  0
  8 14  1  0  0  0  0
  9 15  1  0  0  0  0
 13 16  1  0  0  0  0
 15 17  1  0  0  0  0
 15 18  2  0  0  0  0
 15 19  2  0  0  0  0
 16 20  1  0  0  0  0
 20 21  1  0  0  0  0
 21 22  1  0  0  0  0
 21 23  2  0  0  0  0
 22 24  2  0  0  0  0
 23 25  1  0  0  0  0
 24 26  1  0  0  0  0
  7 10  1  0  0  0  0
  8  9  1  0  0  0  0
 25 26  2  0  0  0  0
M  END
