[NO NAME]
  CHEMW2  0808111106292D                              
Created with ChemWriter - http://chemwriter.com
 30 32  0  0  1  0            999 V2000
    9.8452   -4.6688    0.0000 C   0  0  0  0  0  0  0  0  0  0  0  0
    9.8452   -5.4936    0.0000 N   0  0  0  0  0  0  0  0  0  0  0  0
   10.5596   -5.9059    0.0000 C   0  0  0  0  0  0  0  0  0  0  0  0
   11.2740   -5.4936    0.0000 C   0  0  0  0  0  0  0  0  0  0  0  0
   11.2740   -4.6688    0.0000 C   0  0  0  0  0  0  0  0  0  0  0  0
   10.5596   -4.2563    0.0000 S   0  0  0  0  0  0  0  0  0  0  0  0
    9.0203   -4.6688    0.0000 C   0  0  0  0  0  0  0  0  0  0  0  0
    9.0203   -5.4936    0.0000 C   0  0  0  0  0  0  0  0  0  0  0  0
    8.3060   -4.2563    0.0000 N   0  0  0  0  0  0  0  0  0  0  0  0
    7.5916   -4.6688    0.0000 C   0  0  0  0  0  0  0  0  0  0  0  0
    7.5916   -5.4936    0.0000 O   0  0  0  0  0  0  0  0  0  0  0  0
    8.3060   -5.9059    0.0000 O   0  0  0  0  0  0  0  0  0  0  0  0
    6.8772   -4.2563    0.0000 C   0  0  0  0  0  0  0  0  0  0  0  0
   11.9992   -5.9126    0.0000 C   0  0  0  0  0  0  0  0  0  0  0  0
   10.5596   -6.7307    0.0000 C   0  0  0  0  0  0  0  0  0  0  0  0
    9.8353   -7.1489    0.0000 O   0  0  0  0  0  0  0  0  0  0  0  0
   11.2639   -7.1374    0.0000 O   0  0  0  0  0  0  0  0  0  0  0  0
    6.1514   -4.6756    0.0000 C   0  0  0  0  0  0  0  0  0  0  0  0
    9.8452   -3.8430    0.0000 H   0  0  0  0  0  0  0  0  0  0  0  0
    5.4709   -4.1964    0.0000 O   0  0  0  0  0  0  0  0  0  0  0  0
    4.8020   -4.6957    0.0000 C   0  0  0  0  0  0  0  0  0  0  0  0
    5.0702   -5.4861    0.0000 C   0  0  0  0  0  0  0  0  0  0  0  0
    5.9048   -5.4753    0.0000 C   0  0  0  0  0  0  0  0  0  0  0  0
    6.8771   -3.4189    0.0000 N   0  0  0  0  0  0  0  0  0  0  0  0
   12.7237   -5.4946    0.0000 O   0  0  0  0  0  0  0  0  0  0  0  0
   13.4239   -5.8992    0.0000 C   0  0  0  0  0  0  0  0  0  0  0  0
   14.1290   -5.4923    0.0000 N   0  0  0  0  0  0  0  0  0  0  0  0
   13.4237   -6.7283    0.0000 O   0  0  0  0  0  0  0  0  0  0  0  0
    7.5935   -3.0053    0.0000 O   0  0  0  0  0  0  0  0  0  0  0  0
    7.5936   -2.1768    0.0000 C   0  0  0  0  0  0  0  0  0  0  0  0
  1  2  1  0  0  0  0
  2  3  1  0  0  0  0
  3  4  2  0  0  0  0
  4  5  1  0  0  0  0
  5  6  1  0  0  0  0
  1  6  1  0  0  0  0
  1  7  1  0  0  0  0
  7  8  1  0  0  0  0
  2  8  1  0  0  0  0
  7  9  1  1  0  0  0
  9 10  1  0  0  0  0
 10 11  2  0  0  0  0
  8 12  2  0  0  0  0
 10 13  1  0  0  0  0
  4 14  1  0  0  0  0
  3 15  1  0  0  0  0
 15 16  2  0  0  0  0
 15 17  1  0  0  0  0
 13 18  1  0  0  0  0
  1 19  1  6  0  0  0
 18 20  1  0  0  0  0
 20 21  1  0  0  0  0
 21 22  2  0  0  0  0
 22 23  1  0  0  0  0
 18 23  2  0  0  0  0
 13 24  2  0  0  0  0
 14 25  1  0  0  0  0
 25 26  1  0  0  0  0
 26 27  1  0  0  0  0
 26 28  2  0  0  0  0
 24 29  1  0  0  0  0
 29 30  1  0  0  0  0
M  END
