[NO NAME]
  CHEMW2  0808111107402D                              
Created with ChemWriter - http://chemwriter.com
 91101  0  0  1  0            999 V2000
   25.1879  -13.8191    0.0000 C   0  0  0  0  0  0  0  0  0  0  0  0
   25.1879  -15.4691    0.0000 C   0  0  0  0  0  0  0  0  0  0  0  0
   26.6168  -15.4691    0.0000 C   0  0  0  0  0  0  0  0  0  0  0  0
   27.3313  -15.0566    0.0000 C   0  0  0  0  0  0  0  0  0  0  0  0
   27.3313  -12.5816    0.0000 C   0  0  0  0  0  0  0  0  0  0  0  0
   26.6168  -12.9941    0.0000 C   0  0  0  0  0  0  0  0  0  0  0  0
   30.0999  -12.3267    0.0000 C   0  0  0  0  0  0  0  0  0  0  0  0
   30.8144  -11.0892    0.0000 C   0  0  0  0  0  0  0  0  0  0  0  0
   30.8144  -12.7392    0.0000 C   0  0  0  0  0  0  0  0  0  0  0  0
   31.5288  -12.3267    0.0000 C   0  0  0  0  0  0  0  0  0  0  0  0
   30.0999  -13.1517    0.0000 O   0  0  0  0  0  0  0  0  0  0  0  0
   30.0999  -11.5017    0.0000 O   0  0  0  0  0  0  0  0  0  0  0  0
   24.4734  -14.2316    0.0000 C   0  0  0  0  0  0  0  0  0  0  0  0
   23.7589  -13.8191    0.0000 O   0  0  0  0  0  0  0  0  0  0  0  0
   31.5288  -11.5017    0.0000 C   0  0  0  0  0  0  0  0  0  0  0  0
   32.2433  -11.0892    0.0000 C   0  0  0  0  0  0  0  0  0  0  0  0
   29.3153  -12.0717    0.0000 C   0  0  0  0  0  0  0  0  0  0  0  0
   28.9028  -11.3573    0.0000 C   0  0  0  0  0  0  0  0  0  0  0  0
   25.9023  -15.0566    0.0000 C   0  0  0  0  0  0  0  0  0  0  0  0
   25.9023  -15.8816    0.0000 H   0  0  0  0  0  0  0  0  0  0  0  0
   26.6168  -13.8191    0.0000 C   0  0  0  0  0  0  0  0  0  0  0  0
   26.6168  -14.6441    0.0000 H   0  0  0  0  0  0  0  0  0  0  0  0
   28.0457  -13.8191    0.0000 C   0  0  0  0  0  0  0  0  0  0  0  0
   28.0457  -14.6441    0.0000 H   0  0  0  0  0  0  0  0  0  0  0  0
   29.3153  -13.4066    0.0000 C   0  0  0  0  0  0  0  0  0  0  0  0
   29.8986  -13.9899    0.0000 H   0  0  0  0  0  0  0  0  0  0  0  0
   28.0457  -12.9941    0.0000 C   0  0  0  0  0  0  0  0  0  0  0  0
   28.0457  -12.1691    0.0000 C   0  0  0  0  0  0  0  0  0  0  0  0
   28.8304  -12.7391    0.0000 C   0  0  0  0  0  0  0  0  0  0  0  0
   28.6802  -11.9105    0.0000 H   0  0  0  0  0  0  0  0  0  0  0  0
   25.9023  -14.2316    0.0000 C   0  0  0  0  0  0  0  0  0  0  0  0
   25.9023  -13.4066    0.0000 C   0  0  0  0  0  0  0  0  0  0  0  0
   27.3313  -14.2316    0.0000 C   0  0  0  0  0  0  0  0  0  0  0  0
   27.3313  -13.4066    0.0000 H   0  0  0  0  0  0  0  0  0  0  0  0
   24.4734  -15.0566    0.0000 C   0  0  0  0  0  0  0  0  0  0  0  0
   23.7589  -15.4691    0.0000 O   0  0  0  0  0  0  0  0  0  0  0  0
   23.7589  -16.2941    0.0000 C   0  0  0  0  0  0  0  0  0  0  0  0
   23.0445  -16.7066    0.0000 O   0  0  0  0  0  0  0  0  0  0  0  0
   24.4734  -16.7066    0.0000 C   0  0  0  0  0  0  0  0  0  0  0  0
   25.1879  -16.2941    0.0000 O   0  0  0  0  0  0  0  0  0  0  0  0
   23.0445  -17.5317    0.0000 C   0  0  0  0  0  0  0  0  0  0  0  0
   23.7589  -17.9442    0.0000 C   0  0  0  0  0  0  0  0  0  0  0  0
   24.4734  -17.5317    0.0000 C   0  0  0  0  0  0  0  0  0  0  0  0
   25.1879  -17.9442    0.0000 O   0  0  0  0  0  0  0  0  0  0  0  0
   22.3300  -17.9442    0.0000 C   0  0  0  0  0  0  0  0  0  0  0  0
   21.6155  -17.5317    0.0000 O   0  0  0  0  0  0  0  0  0  0  0  0
   23.7589  -18.7692    0.0000 O   0  0  0  0  0  0  0  0  0  0  0  0
   23.0445  -19.1817    0.0000 C   0  0  0  0  0  0  0  0  0  0  0  0
   22.3300  -18.7692    0.0000 O   0  0  0  0  0  0  0  0  0  0  0  0
   23.0445  -20.0067    0.0000 C   0  0  0  0  0  0  0  0  0  0  0  0
   21.6155  -20.0067    0.0000 C   0  0  0  0  0  0  0  0  0  0  0  0
   20.9011  -20.4192    0.0000 O   0  0  0  0  0  0  0  0  0  0  0  0
   22.3300  -20.4192    0.0000 C   0  0  0  0  0  0  0  0  0  0  0  0
   21.6155  -19.1817    0.0000 C   0  0  0  0  0  0  0  0  0  0  0  0
   20.9011  -18.7692    0.0000 C   0  0  0  0  0  0  0  0  0  0  0  0
   20.1866  -19.1817    0.0000 O   0  0  0  0  0  0  0  0  0  0  0  0
   22.3300  -21.2442    0.0000 O   0  0  0  0  0  0  0  0  0  0  0  0
   21.6155  -21.6567    0.0000 C   0  0  0  0  0  0  0  0  0  0  0  0
   20.1866  -21.6567    0.0000 C   0  0  0  0  0  0  0  0  0  0  0  0
   20.9011  -21.2442    0.0000 O   0  0  0  0  0  0  0  0  0  0  0  0
   20.9011  -22.8942    0.0000 C   0  0  0  0  0  0  0  0  0  0  0  0
   20.9011  -23.7192    0.0000 O   0  0  0  0  0  0  0  0  0  0  0  0
   21.6155  -22.4817    0.0000 C   0  0  0  0  0  0  0  0  0  0  0  0
   22.3300  -22.8942    0.0000 O   0  0  0  0  0  0  0  0  0  0  0  0
   20.1866  -22.4817    0.0000 C   0  0  0  0  0  0  0  0  0  0  0  0
   19.4721  -22.8942    0.0000 O   0  0  0  0  0  0  0  0  0  0  0  0
   23.7589  -20.4192    0.0000 O   0  0  0  0  0  0  0  0  0  0  0  0
   24.4734  -20.8317    0.0000 C   0  0  0  0  0  0  0  0  0  0  0  0
   24.4734  -21.6567    0.0000 O   0  0  0  0  0  0  0  0  0  0  0  0
   25.1879  -20.4192    0.0000 C   0  0  0  0  0  0  0  0  0  0  0  0
   25.1879  -19.5942    0.0000 O   0  0  0  0  0  0  0  0  0  0  0  0
   25.9023  -21.6567    0.0000 C   0  0  0  0  0  0  0  0  0  0  0  0
   26.6168  -22.0692    0.0000 O   0  0  0  0  0  0  0  0  0  0  0  0
   25.1879  -22.0692    0.0000 C   0  0  0  0  0  0  0  0  0  0  0  0
   25.1879  -22.8942    0.0000 C   0  0  0  0  0  0  0  0  0  0  0  0
   24.4734  -23.3067    0.0000 O   0  0  0  0  0  0  0  0  0  0  0  0
   25.9023  -20.8317    0.0000 C   0  0  0  0  0  0  0  0  0  0  0  0
   26.6168  -20.4192    0.0000 O   0  0  0  0  0  0  0  0  0  0  0  0
   27.3313  -20.8317    0.0000 C   0  0  0  0  0  0  0  0  0  0  0  0
   27.3313  -21.6567    0.0000 O   0  0  0  0  0  0  0  0  0  0  0  0
   28.7602  -20.8317    0.0000 C   0  0  0  0  0  0  0  0  0  0  0  0
   29.4747  -20.4192    0.0000 O   0  0  0  0  0  0  0  0  0  0  0  0
   28.0457  -22.0692    0.0000 C   0  0  0  0  0  0  0  0  0  0  0  0
   28.0457  -22.8942    0.0000 C   0  0  0  0  0  0  0  0  0  0  0  0
   27.3313  -23.3067    0.0000 O   0  0  0  0  0  0  0  0  0  0  0  0
   28.0457  -20.4192    0.0000 C   0  0  0  0  0  0  0  0  0  0  0  0
   28.0457  -19.5942    0.0000 O   0  0  0  0  0  0  0  0  0  0  0  0
   28.7602  -21.6567    0.0000 C   0  0  0  0  0  0  0  0  0  0  0  0
   29.4747  -22.0692    0.0000 O   0  0  0  0  0  0  0  0  0  0  0  0
   28.8304  -14.0740    0.0000 C   0  0  0  0  0  0  0  0  0  0  0  0
   29.2429  -14.7884    0.0000 O   0  0  0  0  0  0  0  0  0  0  0  0
  1 13  1  0  0  0  0
  1 31  1  0  0  0  0
 13 35  1  0  0  0  0
 35  2  1  0  0  0  0
  2 19  1  0  0  0  0
 21 31  1  0  0  0  0
 31 19  1  0  0  0  0
 19  3  1  0  0  0  0
  3  4  1  0  0  0  0
  4 33  1  0  0  0  0
 33 23  1  0  0  0  0
 21 33  1  0  0  0  0
  6 21  1  0  0  0  0
  5  6  1  0  0  0  0
  5 27  1  0  0  0  0
 29 27  1  0  0  0  0
 27 23  1  0  0  0  0
 23 90  1  0  0  0  0
 90 25  1  0  0  0  0
 25 11  1  0  0  0  0
 29 25  1  0  0  0  0
 17 29  1  0  0  0  0
 17  7  1  0  0  0  0
 11  7  1  0  0  0  0
  7 12  1  6  0  0  0
  7  9  1  0  0  0  0
  8 12  1  0  0  0  0
  8 15  1  0  0  0  0
  9 10  1  0  0  0  0
 10 15  1  0  0  0  0
 13 14  1  6  0  0  0
 15 16  1  6  0  0  0
 17 18  1  6  0  0  0
 19 20  1  6  0  0  0
 21 22  1  6  0  0  0
 23 24  1  6  0  0  0
 25 26  1  6  0  0  0
 27 28  1  1  0  0  0
 29 30  1  6  0  0  0
 31 32  1  1  0  0  0
 33 34  1  1  0  0  0
 35 36  1  1  0  0  0
 37 36  1  1  0  0  0
 37 38  1  0  0  0  0
 37 39  1  0  0  0  0
 38 41  1  0  0  0  0
 41 42  1  0  0  0  0
 42 43  1  0  0  0  0
 43 39  1  0  0  0  0
 39 40  1  6  0  0  0
 41 45  1  1  0  0  0
 42 47  1  1  0  0  0
 43 44  1  1  0  0  0
 45 46  1  0  0  0  0
 48 47  1  1  0  0  0
 50 48  1  0  0  0  0
 49 48  1  0  0  0  0
 49 54  1  0  0  0  0
 54 51  1  0  0  0  0
 51 53  1  0  0  0  0
 53 50  1  0  0  0  0
 50 67  1  6  0  0  0
 51 52  1  6  0  0  0
 53 57  1  1  0  0  0
 54 55  1  1  0  0  0
 55 56  1  0  0  0  0
 58 57  1  1  0  0  0
 63 58  1  0  0  0  0
 60 58  1  0  0  0  0
 60 59  1  0  0  0  0
 59 65  1  0  0  0  0
 65 61  1  0  0  0  0
 61 63  1  0  0  0  0
 61 62  1  1  0  0  0
 63 64  1  6  0  0  0
 65 66  1  6  0  0  0
 68 67  1  1  0  0  0
 70 68  1  0  0  0  0
 68 69  1  0  0  0  0
 70 77  1  0  0  0  0
 69 74  1  0  0  0  0
 74 72  1  0  0  0  0
 72 77  1  0  0  0  0
 70 71  1  6  0  0  0
 72 73  1  6  0  0  0
 74 75  1  1  0  0  0
 75 76  1  0  0  0  0
 77 78  1  1  0  0  0
 79 78  1  1  0  0  0
 86 79  1  0  0  0  0
 79 80  1  0  0  0  0
 86 81  1  0  0  0  0
 80 83  1  0  0  0  0
 83 88  1  0  0  0  0
 88 81  1  0  0  0  0
 81 82  1  1  0  0  0
 83 84  1  1  0  0  0
 84 85  1  0  0  0  0
 86 87  1  6  0  0  0
 88 89  1  6  0  0  0
 90 91  1  1  0  0  0
M  END
